-------------------------------------------------------
          Amber 20 PMEMD                              2020
          -------------------------------------------------------

  [-O]verwriting output

File Assignments:

 Here is the input file:

 MD simulations
&cntrl
 imin=0,           ! Perform MD (1=energy minimization)
 nstlim=1000000   ! Number of MD steps
 ntx=5,            ! Both positions and velocities are read (1=only read positi
 irest=1,          ! Restart ("continue" should be better word) calculation (0=
 ntc=2,            ! SHAKE on for bonds with hydrogen (SHAKE restricts bond str
 dt=0.004,         ! Timestep (ps)
 ntb=1,            ! 2=Constant Pressure, default when ntp>0. Unit cell size ch
 igb=0,            !
 ntp=0,            ! 1=Isotropic pressure scaling (0=no scaling) (should be 1 o
 barostat=2        ! 1=Berendsen barostat, 2=montecarlo thermostat, p339 amber
 taup=0.5          ! Pressure relaxtion time (ps)
 ntf=2,            ! No force evaluation for bonds with hydrogen (1=complete fo
 ntt=3,            ! Langevin thermostat (0=constant total energy, p337 manual)
 gamma_ln=0.01       ! Collision Frequency for thermostat
 ig=-1,            ! Random number generator for thermostat (-1=based on curren
 temp0=310,         ! Simulation temperature (K)
 ntwx= 25000,       ! Write to trajectory file every ntwx steps
 ntpr= 5000,       ! Print to mdout every ntpr steps
 ntwr= 25000,       ! Write a restart file every ntwr steps
 cut=  8,        ! Nonbonded cutoff in Angstroms
 ntr=0,            ! Turn on restraints
 restraintmask=":396>@8&!:WAT,Na+", ! atoms to be restrained (all in residue 1-
 restraint_wt=10, ! force constant for restraint
 ntxo=2,           ! Write coordinate file in NetCDF format (1=ASCII format)
 ioutfm=1,         ! Write trajectory file in NetCDF format (0=ASCII format)
 iwrap=1,          ! iwrap is turned on (0=off)
 nmropt=1,         !
/
&wt type='END' /
DISANG=zinc.rst
LISTOUT=POUT

Note: ig = -1. Setting random seed to   703639 based on wallclock time in
      microseconds.

--------------------------------------------------------------------------------
   1.  RESOURCE   USE:
--------------------------------------------------------------------------------

 getting box info from netcdf restart file
 NATOM  =  153272 NTYPES =      32 NBONH =  112584 MBONA  =   40790
 NTHETH =   10978 MTHETA =    6595 NPHIH =   21968 MPHIA  =   21108
 NHPARM =       0 NPARM  =       0 NNB   =  304595 NRES   =   36519
 NBONA  =   40790 NTHETA =    6595 NPHIA =   21108 NUMBND =     104
 NUMANG =     238 NPTRA  =     234 NATYP =      57 NPHB   =       1
 IFBOX  =       2 NMXRS  =      77 IFCAP =       0 NEXTRA =   35924
 NCOPY  =       0

     BOX TYPE: TRUNCATED OCTAHEDRON

--------------------------------------------------------------------------------
   2.  CONTROL  DATA  FOR  THE  RUN
--------------------------------------------------------------------------------

default_name

General flags:
     imin    =       0, nmropt  =       1

Nature and format of input:
     ntx     =       5, irest   =       1, ntrx    =       1

Nature and format of output:
     ntxo    =       2, ntpr    =    5000, ntrx    =       1, ntwr    =   25000
     iwrap   =       1, ntwx    =   25000, ntwv    =       0, ntwe    =       0
     ioutfm  =       1, ntwprt  =       0, idecomp =       0, rbornstat=      0

Potential function:
     ntf     =       2, ntb     =       1, igb     =       0, nsnb    =      25
     ipol    =       0, gbsa    =       0, iesp    =       0
     dielc   =   1.00000, cut     =   8.00000, intdiel =   1.00000

Frozen or restrained atoms:
     ibelly  =       0, ntr     =       0

Molecular dynamics:
     nstlim  =   1000000, nscm    =      1000, nrespa  =         1
     t       =   0.00000, dt      =   0.00400, vlimit  =  -1.00000

Langevin dynamics temperature regulation:
     ig      =  703639
     temp0   = 310.00000, tempi   =   0.00000, gamma_ln=   0.01000

SHAKE:
     ntc     =       2, jfastw  =       0
     tol     =   0.00001

NMR refinement options:
     iscale  =       0, noeskp  =       1, ipnlty  =       1, mxsub   =       1
     scalm   = 100.00000, pencut  =   0.10000, tausw   =   0.10000

Extra-points options:
     frameon =       1, chngmask=       1

Ewald parameters:
     verbose =       0, ew_type =       0, nbflag  =       1, use_pme =       1
     vdwmeth =       1, eedmeth =       1, netfrc  =       1
     Box X =  113.713   Box Y =  113.713   Box Z =  113.713
     Alpha =  109.471   Beta  =  109.471   Gamma =  109.471
     NFFT1 =  120       NFFT2 =  120       NFFT3 =  120
     Cutoff=    8.000   Tol   =0.100E-04
     Ewald Coefficient =  0.34864
     Interpolation order =    4

--------------------------------------------------------------------------------
   3.  ATOMIC COORDINATES AND VELOCITIES
--------------------------------------------------------------------------------

default_name
 begin time read from input coords =    50.000 ps

           Begin reading energy term weight changes/NMR restraints
 WEIGHT CHANGES:
                         ** No weight changes given **

 RESTRAINTS:
 Requested file redirections:
  DISANG    = zinc.rst
  LISTOUT   = POUT
 Restraints will be read from file: zinc.rst
Here are comments from the DISANG input file:

                       Number of restraints read =     5

                  Done reading weight changes/NMR restraints

 Number of triangulated 3-point waters found:    35924

     Sum of charges from parm topology file =   0.00319683
     Forcing neutrality...

--------------------------------------------------------------------------------
   4.  RESULTS
 NSTEP =     5000   TIME(PS) =      70.000  TEMP(K) =   287.22  PRESS =     0.0
 Etot   =   -394329.7369  EKtot   =     68336.3750  EPtot      =   -462666.1119
 BOND   =      1993.6427  ANGLE   =      4962.4595  DIHED      =      3484.7800
 UB     =         0.0000  IMP     =         0.0000  CMAP       =       472.4073
 1-4 NB =      2159.9076  1-4 EEL =     24706.7600  VDWAALS    =     59759.8533
 EELEC  =   -560235.5039  EHBOND  =         0.0000  RESTRAINT  =        29.5816
 EAMBER (non-restraint)  =   -462695.6935
 ------------------------------------------------------------------------------

      A V E R A G E S   O V E R     200 S T E P S

 NSTEP =  1000000   TIME(PS) =    4050.000  TEMP(K) =   309.45  PRESS =     0.0
 Etot   =   -377801.0685  EKtot   =     73625.3118  EPtot      =   -451426.3803
 BOND   =      2021.9799  ANGLE   =      5245.8469  DIHED      =      3481.2291
 UB     =         0.0000  IMP     =         0.0000  CMAP       =       434.8029
 1-4 NB =      2155.6686  1-4 EEL =     24685.0641  VDWAALS    =     55265.2723
 EELEC  =   -544745.7153  EHBOND  =         0.0000  RESTRAINT  =        29.4713
 EAMBER (non-restraint)  =   -451455.8516
 ------------------------------------------------------------------------------

      R M S  F L U C T U A T I O N S

 NSTEP =  1000000   TIME(PS) =    4050.000  TEMP(K) =     3.39  PRESS =     0.0
 Etot   =      2396.9983  EKtot   =       805.5529  EPtot      =      1621.3369
 BOND   =        41.8738  ANGLE   =        69.5829  DIHED      =        31.9300
 UB     =         0.0000  IMP     =         0.0000  CMAP       =        13.0665
 1-4 NB =        20.2865  1-4 EEL =        75.0731  VDWAALS    =       722.1787
 EELEC  =      2226.6975  EHBOND  =         0.0000  RESTRAINT  =         4.3428
 EAMBER (non-restraint)  =      1616.9942
 ------------------------------------------------------------------------------
