-------------------------------------------------------
          Amber 20 PMEMD                              2020
          -------------------------------------------------------

  [-O]verwriting output

File Assignments:

 Here is the input file:

 MD simualation
&cntrl
 imin=0,           ! Perform MD
 nstlim=50000      ! Number of MD steps
 NTb=2,            ! 2=Constant Pressure, default when ntp>0. Unit cell size ch
 igb=0,            ! 1,2,5,8=implicit solvent
 ntc=1,            ! 2=SHAKE on for bonds with hydrogen (SHAKE restricts bond s
 dt=0.001,         ! Timestep (ps)
 ntp=1,            ! 1=Isotropic pressure scaling (0=no scaling) (should be 1 o
 barostat=2        ! 1=Berendsen barostat, 2=montecarlo thermostat, p339 amber
 taup=0.5          ! Pressure relaxtion time (ps)
 ntf=1,            ! 2=No force evaluation for bonds with hydrogen (1=complete
 ntt=3,            ! Langevin thermostat (0=constant total energy, p337 manual)
 gamma_ln=2.0      ! Collision Frequency for thermostat
 ig=-1,            ! Random seed for thermostat
 temp0=310         ! Simulation temperature (K)
 ntwx= 10000,        ! Write to trajectory file every ntwx steps
 ntpr= 1000,        ! Print to mdout every ntpr steps
 ntwr= 10000,        ! Write a restart file every ntwr steps
 cut=8,          ! Nonbonded cutoff in Angstroms
 ntr=0,            ! Turn on restraints
 restraintmask=":1-395 &!@H=", ! atoms to be restrained (all in BRD4 but not H)
 restraint_wt=10, ! force constant for restraint
 ntxo=2,           ! 1=Write coordinate file in ASCII format, 2=NetCDF
 ntxo=2,           ! 1=Write coordinate file in ASCII format, 2=NetCDF
 ioutfm=1,         ! 0=Write trajectory file in ASCII format, 1=NetCDF
 nmropt=1,         !
/
&wt type='END' /
DISANG=zinc.rst
LISTOUT=POUT

Note: ig = -1. Setting random seed to   532806 based on wallclock time in
      microseconds.

--------------------------------------------------------------------------------
   1.  RESOURCE   USE:
--------------------------------------------------------------------------------

 getting box info from netcdf restart file
 NATOM  =  153228 NTYPES =      32 NBONH =  112551 MBONA  =   40779
 NTHETH =   10978 MTHETA =    6595 NPHIH =   21968 MPHIA  =   21108
 NHPARM =       0 NPARM  =       0 NNB   =  304518 NRES   =   36508
 NBONA  =   40779 NTHETA =    6595 NPHIA =   21108 NUMBND =     104
 NUMANG =     238 NPTRA  =     234 NATYP =      57 NPHB   =       1
 IFBOX  =       2 NMXRS  =      77 IFCAP =       0 NEXTRA =   35913
 NCOPY  =       0

     BOX TYPE: TRUNCATED OCTAHEDRON

--------------------------------------------------------------------------------
   2.  CONTROL  DATA  FOR  THE  RUN
--------------------------------------------------------------------------------

default_name

General flags:
     imin    =       0, nmropt  =       1

Nature and format of input:
     ntx     =       1, irest   =       0, ntrx    =       1

Nature and format of output:
     ntxo    =       2, ntpr    =    1000, ntrx    =       1, ntwr    =   10000
     iwrap   =       0, ntwx    =   10000, ntwv    =       0, ntwe    =       0
     ioutfm  =       1, ntwprt  =       0, idecomp =       0, rbornstat=      0

Potential function:
     ntf     =       1, ntb     =       2, igb     =       0, nsnb    =      25
     ipol    =       0, gbsa    =       0, iesp    =       0
     dielc   =   1.00000, cut     =   8.00000, intdiel =   1.00000

Frozen or restrained atoms:
     ibelly  =       0, ntr     =       0

Molecular dynamics:
     nstlim  =     50000, nscm    =      1000, nrespa  =         1
     t       =   0.00000, dt      =   0.00100, vlimit  =  -1.00000

Langevin dynamics temperature regulation:
     ig      =  532806
     temp0   = 310.00000, tempi   =   0.00000, gamma_ln=   2.00000

Pressure regulation:
     ntp     =       1
     pres0   =   1.00000, comp    =  44.60000, taup    =   0.50000
     Monte-Carlo Barostat:
     mcbarint  =     100

NMR refinement options:
     iscale  =       0, noeskp  =       1, ipnlty  =       1, mxsub   =       1
     scalm   = 100.00000, pencut  =   0.10000, tausw   =   0.10000

Extra-points options:
     frameon =       1, chngmask=       1

Ewald parameters:
     verbose =       0, ew_type =       0, nbflag  =       1, use_pme =       1
     vdwmeth =       1, eedmeth =       1, netfrc  =       1
     Box X =  113.781   Box Y =  113.781   Box Z =  113.781
     Alpha =  109.471   Beta  =  109.471   Gamma =  109.471
     NFFT1 =  120       NFFT2 =  120       NFFT3 =  120
     Cutoff=    8.000   Tol   =0.100E-04
     Ewald Coefficient =  0.34864
     Interpolation order =    4

--------------------------------------------------------------------------------
   3.  ATOMIC COORDINATES AND VELOCITIES
--------------------------------------------------------------------------------

default_name
 begin time read from input coords =    50.000 ps

           Begin reading energy term weight changes/NMR restraints
 WEIGHT CHANGES:
                         ** No weight changes given **

 RESTRAINTS:
 Requested file redirections:
  DISANG    = zinc.rst
  LISTOUT   = POUT
 Restraints will be read from file: zinc.rst
Here are comments from the DISANG input file:

                       Number of restraints read =     5

                  Done reading weight changes/NMR restraints

 Number of triangulated 3-point waters found:    35913

     Sum of charges from parm topology file =   0.00119677
     Forcing neutrality...

--------------------------------------------------------------------------------
   4.  RESULTS
 NSTEP =        0   TIME(PS) =       0.000  TEMP(K) =     0.00  PRESS =     0.0
 Etot   =   -556714.6132  EKtot   =         0.0000  EPtot      =   -556714.6132
 BOND   =    166079.2744  ANGLE   =      4938.4601  DIHED      =      3551.1921
 UB     =         0.0000  IMP     =         0.0000  CMAP       =       533.2631
 1-4 NB =      2225.3556  1-4 EEL =     24860.4314  VDWAALS    =    149882.5470
 EELEC  =   -908943.7869  EHBOND  =         0.0000  RESTRAINT  =       158.6500
 EAMBER (non-restraint)  =   -556873.2632
 EKCMT  =         0.0000  VIRIAL  =         0.0000  VOLUME     =   1133921.7421
                                                    Density    =         1.0471
 ------------------------------------------------------------------------------

      A V E R A G E S   O V E R      50 S T E P S

 NSTEP =    50000   TIME(PS) =      50.000  TEMP(K) =   309.48  PRESS =     0.0
 Etot   =   -450186.2634  EKtot   =    108221.2947  EPtot      =   -558407.5581
 BOND   =    166272.0444  ANGLE   =      5009.9382  DIHED      =      3590.2784
 UB     =         0.0000  IMP     =         0.0000  CMAP       =       482.5497
 1-4 NB =      2172.2073  1-4 EEL =     24776.9501  VDWAALS    =    151149.3030
 EELEC  =   -911909.8698  EHBOND  =         0.0000  RESTRAINT  =        49.0406
 EAMBER (non-restraint)  =   -558456.5987
 EKCMT  =         0.0000  VIRIAL  =         0.0000  VOLUME     =   1131854.8724
                                                    Density    =         1.0490
 ------------------------------------------------------------------------------

      R M S  F L U C T U A T I O N S

 NSTEP =    50000   TIME(PS) =      50.000  TEMP(K) =     3.13  PRESS =     0.0
 Etot   =      2435.4816  EKtot   =      1095.2187  EPtot      =      1396.1401
 BOND   =       512.2721  ANGLE   =        48.3709  DIHED      =        31.0220
 UB     =         0.0000  IMP     =         0.0000  CMAP       =        12.5898
 1-4 NB =        23.1223  1-4 EEL =        45.8147  VDWAALS    =       463.8111
 EELEC  =      1670.5066  EHBOND  =         0.0000  RESTRAINT  =        18.7214
 EAMBER (non-restraint)  =      1377.4187
 EKCMT  =         0.0000  VIRIAL  =         0.0000  VOLUME     =       963.9394
                                                    Density    =         0.0009
 ------------------------------------------------------------------------------
