-------------------------------------------------------
          Amber 20 PMEMD                              2020
          -------------------------------------------------------

  [-O]verwriting output

File Assignments:

 Here is the input file:

 MD simulations
&cntrl
 imin=0,           ! Perform MD (1=energy minimization)
 nstlim=1000000   ! Number of MD steps
 ntx=5,            ! Both positions and velocities are read (1=only read positi
 irest=1,          ! Restart ("continue" should be better word) calculation (0=
 ntc=2,            ! SHAKE on for bonds with hydrogen (SHAKE restricts bond str
 dt=0.004,         ! Timestep (ps)
 ntb=1,            ! 2=Constant Pressure, default when ntp>0. Unit cell size ch
 igb=0,            !
 ntp=0,            ! 1=Isotropic pressure scaling (0=no scaling) (should be 1 o
 barostat=2        ! 1=Berendsen barostat, 2=montecarlo thermostat, p339 amber
 taup=0.5          ! Pressure relaxtion time (ps)
 ntf=2,            ! No force evaluation for bonds with hydrogen (1=complete fo
 ntt=3,            ! Langevin thermostat (0=constant total energy, p337 manual)
 gamma_ln=0.01       ! Collision Frequency for thermostat
 ig=-1,            ! Random number generator for thermostat (-1=based on curren
 temp0=310,         ! Simulation temperature (K)
 ntwx= 25000,       ! Write to trajectory file every ntwx steps
 ntpr= 5000,       ! Print to mdout every ntpr steps
 ntwr= 25000,       ! Write a restart file every ntwr steps
 cut=  8,        ! Nonbonded cutoff in Angstroms
 ntr=0,            ! Turn on restraints
 restraintmask=":396>@8&!:WAT,Na+", ! atoms to be restrained (all in residue 1-
 restraint_wt=10, ! force constant for restraint
 ntxo=2,           ! Write coordinate file in NetCDF format (1=ASCII format)
 ioutfm=1,         ! Write trajectory file in NetCDF format (0=ASCII format)
 iwrap=1,          ! iwrap is turned on (0=off)
 nmropt=1,         !
/
&wt type='END' /
DISANG=zinc.rst
LISTOUT=POUT

Note: ig = -1. Setting random seed to   782144 based on wallclock time in
      microseconds.

--------------------------------------------------------------------------------
   1.  RESOURCE   USE:
--------------------------------------------------------------------------------

 getting box info from netcdf restart file
 NATOM  =  153163 NTYPES =      19 NBONH =  112530 MBONA  =   40729
 NTHETH =   10912 MTHETA =    6520 NPHIH =   21834 MPHIA  =   20975
 NHPARM =       0 NPARM  =       0 NNB   =  304119 NRES   =   36510
 NBONA  =   40729 NTHETA =    6520 NPHIA =   20975 NUMBND =      78
 NUMANG =     184 NPTRA  =     202 NATYP =      39 NPHB   =       1
 IFBOX  =       2 NMXRS  =      24 IFCAP =       0 NEXTRA =   35916
 NCOPY  =       0

     BOX TYPE: TRUNCATED OCTAHEDRON

--------------------------------------------------------------------------------
   2.  CONTROL  DATA  FOR  THE  RUN
--------------------------------------------------------------------------------

default_name

General flags:
     imin    =       0, nmropt  =       1

Nature and format of input:
     ntx     =       5, irest   =       1, ntrx    =       1

Nature and format of output:
     ntxo    =       2, ntpr    =    5000, ntrx    =       1, ntwr    =   25000
     iwrap   =       1, ntwx    =   25000, ntwv    =       0, ntwe    =       0
     ioutfm  =       1, ntwprt  =       0, idecomp =       0, rbornstat=      0

Potential function:
     ntf     =       2, ntb     =       1, igb     =       0, nsnb    =      25
     ipol    =       0, gbsa    =       0, iesp    =       0
     dielc   =   1.00000, cut     =   8.00000, intdiel =   1.00000

Frozen or restrained atoms:
     ibelly  =       0, ntr     =       0

Molecular dynamics:
     nstlim  =   1000000, nscm    =      1000, nrespa  =         1
     t       =   0.00000, dt      =   0.00400, vlimit  =  -1.00000

Langevin dynamics temperature regulation:
     ig      =  782144
     temp0   = 310.00000, tempi   =   0.00000, gamma_ln=   0.01000

SHAKE:
     ntc     =       2, jfastw  =       0
     tol     =   0.00001

NMR refinement options:
     iscale  =       0, noeskp  =       1, ipnlty  =       1, mxsub   =       1
     scalm   = 100.00000, pencut  =   0.10000, tausw   =   0.10000

Extra-points options:
     frameon =       1, chngmask=       1

Ewald parameters:
     verbose =       0, ew_type =       0, nbflag  =       1, use_pme =       1
     vdwmeth =       1, eedmeth =       1, netfrc  =       1
     Box X =  113.640   Box Y =  113.640   Box Z =  113.640
     Alpha =  109.471   Beta  =  109.471   Gamma =  109.471
     NFFT1 =  120       NFFT2 =  120       NFFT3 =  120
     Cutoff=    8.000   Tol   =0.100E-04
     Ewald Coefficient =  0.34864
     Interpolation order =    4

--------------------------------------------------------------------------------
   3.  ATOMIC COORDINATES AND VELOCITIES
--------------------------------------------------------------------------------

default_name
 begin time read from input coords =    50.000 ps

           Begin reading energy term weight changes/NMR restraints
 WEIGHT CHANGES:
                         ** No weight changes given **

 RESTRAINTS:
 Requested file redirections:
  DISANG    = zinc.rst
  LISTOUT   = POUT
 Restraints will be read from file: zinc.rst
Here are comments from the DISANG input file:

                       Number of restraints read =     5

                  Done reading weight changes/NMR restraints

 Number of triangulated 3-point waters found:    35916

     Sum of charges from parm topology file =   0.00019680
     Forcing neutrality...

--------------------------------------------------------------------------------
   4.  RESULTS
 NSTEP =     5000   TIME(PS) =      70.000  TEMP(K) =   286.85  PRESS =     0.0
 Etot   =   -394682.0879  EKtot   =     68178.5938  EPtot      =   -462860.6816
 BOND   =      1925.8540  ANGLE   =      5027.2153  DIHED      =      3474.6655
 UB     =         0.0000  IMP     =         0.0000  CMAP       =       454.3311
 1-4 NB =      2145.8094  1-4 EEL =     24647.5325  VDWAALS    =     59335.9943
 EELEC  =   -559920.7094  EHBOND  =         0.0000  RESTRAINT  =        48.6256
 EAMBER (non-restraint)  =   -462909.3072
 ------------------------------------------------------------------------------

      A V E R A G E S   O V E R     200 S T E P S

 NSTEP =  1000000   TIME(PS) =    4050.000  TEMP(K) =   309.58  PRESS =     0.0
 Etot   =   -377732.7164  EKtot   =     73580.4413  EPtot      =   -451313.1576
 BOND   =      2005.5999  ANGLE   =      5176.6080  DIHED      =      3448.8445
 UB     =         0.0000  IMP     =         0.0000  CMAP       =       446.1220
 1-4 NB =      2140.1921  1-4 EEL =     24670.9878  VDWAALS    =     55273.5156
 EELEC  =   -544512.2888  EHBOND  =         0.0000  RESTRAINT  =        37.2613
 EAMBER (non-restraint)  =   -451350.4189
 ------------------------------------------------------------------------------

      R M S  F L U C T U A T I O N S

 NSTEP =  1000000   TIME(PS) =    4050.000  TEMP(K) =     3.38  PRESS =     0.0
 Etot   =      2350.1863  EKtot   =       803.2719  EPtot      =      1574.2076
 BOND   =        39.9996  ANGLE   =        64.6466  DIHED      =        31.4785
 UB     =         0.0000  IMP     =         0.0000  CMAP       =        15.2867
 1-4 NB =        19.8929  1-4 EEL =        64.4656  VDWAALS    =       685.0598
 EELEC  =      2149.9165  EHBOND  =         0.0000  RESTRAINT  =         4.6717
 EAMBER (non-restraint)  =      1569.5359
 ------------------------------------------------------------------------------
