-------------------------------------------------------
          Amber 20 PMEMD                              2020
          -------------------------------------------------------

  [-O]verwriting output

File Assignments:

 Here is the input file:

 MD simualation
&cntrl
 imin=0,           ! Perform MD
 nstlim=50000      ! Number of MD steps
 ntb=2,            ! 2=Constant Pressure, default when ntp>0. Unit cell size ch
 igb=0,            ! 1,2,5,8=implicit solvent
 ntc=1,            ! 2=SHAKE on for bonds with hydrogen (SHAKE restricts bond s
 dt=0.001,         ! Timestep (ps)
 ntp=1,            ! 1=Isotropic pressure scaling (0=no scaling) (should be 1 o
 barostat=2        ! 1=Berendsen barostat, 2=montecarlo thermostat, p339 amber
 taup=0.5          ! Pressure relaxtion time (ps)
 ntf=1,            ! 2=No force evaluation for bonds with hydrogen (1=complete
 ntt=3,            ! Langevin thermostat (0=constant total energy, p337 manual)
 gamma_ln=2.0      ! Collision Frequency for thermostat
 ig=-1,            ! Random seed for thermostat
 temp0=310         ! Simulation temperature (K)
 ntwx= 10000,        ! Write to trajectory file every ntwx steps
 ntpr= 1000,        ! Print to mdout every ntpr steps
 ntwr= 10000,        ! Write a restart file every ntwr steps
 cut=8,          ! Nonbonded cutoff in Angstroms
 ntr=0,            ! Turn on restraints
 restraintmask=":1-395 &!@H=", ! atoms to be restrained (all in BRD4 but not H)
 restraint_wt=10, ! force constant for restraint
 ntxo=2,           ! 1=Write coordinate file in ASCII format, 2=NetCDF
 ntxo=2,           ! 1=Write coordinate file in ASCII format, 2=NetCDF
 ioutfm=1,         ! 0=Write trajectory file in ASCII format, 1=NetCDF
 nmropt=1,         !
/
&wt type='END' /
DISANG=zinc.rst
LISTOUT=POUT

Note: ig = -1. Setting random seed to   653476 based on wallclock time in
      microseconds.

--------------------------------------------------------------------------------
   1.  RESOURCE   USE:
--------------------------------------------------------------------------------

 getting box info from netcdf restart file
 NATOM  =  153163 NTYPES =      19 NBONH =  112530 MBONA  =   40729
 NTHETH =   10912 MTHETA =    6520 NPHIH =   21834 MPHIA  =   20975
 NHPARM =       0 NPARM  =       0 NNB   =  304119 NRES   =   36510
 NBONA  =   40729 NTHETA =    6520 NPHIA =   20975 NUMBND =      78
 NUMANG =     184 NPTRA  =     202 NATYP =      39 NPHB   =       1
 IFBOX  =       2 NMXRS  =      24 IFCAP =       0 NEXTRA =   35916
 NCOPY  =       0

     BOX TYPE: TRUNCATED OCTAHEDRON

--------------------------------------------------------------------------------
   2.  CONTROL  DATA  FOR  THE  RUN
--------------------------------------------------------------------------------

default_name

General flags:
     imin    =       0, nmropt  =       1

Nature and format of input:
     ntx     =       1, irest   =       0, ntrx    =       1

Nature and format of output:
     ntxo    =       2, ntpr    =    1000, ntrx    =       1, ntwr    =   10000
     iwrap   =       0, ntwx    =   10000, ntwv    =       0, ntwe    =       0
     ioutfm  =       1, ntwprt  =       0, idecomp =       0, rbornstat=      0

Potential function:
     ntf     =       1, ntb     =       2, igb     =       0, nsnb    =      25
     ipol    =       0, gbsa    =       0, iesp    =       0
     dielc   =   1.00000, cut     =   8.00000, intdiel =   1.00000

Frozen or restrained atoms:
     ibelly  =       0, ntr     =       0

Molecular dynamics:
     nstlim  =     50000, nscm    =      1000, nrespa  =         1
     t       =   0.00000, dt      =   0.00100, vlimit  =  -1.00000

Langevin dynamics temperature regulation:
     ig      =  653476
     temp0   = 310.00000, tempi   =   0.00000, gamma_ln=   2.00000

Pressure regulation:
     ntp     =       1
     pres0   =   1.00000, comp    =  44.60000, taup    =   0.50000
     Monte-Carlo Barostat:
     mcbarint  =     100

NMR refinement options:
     iscale  =       0, noeskp  =       1, ipnlty  =       1, mxsub   =       1
     scalm   = 100.00000, pencut  =   0.10000, tausw   =   0.10000

Extra-points options:
     frameon =       1, chngmask=       1

Ewald parameters:
     verbose =       0, ew_type =       0, nbflag  =       1, use_pme =       1
     vdwmeth =       1, eedmeth =       1, netfrc  =       1
     Box X =  113.776   Box Y =  113.776   Box Z =  113.776
     Alpha =  109.471   Beta  =  109.471   Gamma =  109.471
     NFFT1 =  120       NFFT2 =  120       NFFT3 =  120
     Cutoff=    8.000   Tol   =0.100E-04
     Ewald Coefficient =  0.34864
     Interpolation order =    4

--------------------------------------------------------------------------------
   3.  ATOMIC COORDINATES AND VELOCITIES
--------------------------------------------------------------------------------

default_name
 begin time read from input coords =    50.000 ps

           Begin reading energy term weight changes/NMR restraints
 WEIGHT CHANGES:
                         ** No weight changes given **

 RESTRAINTS:
 Requested file redirections:
  DISANG    = zinc.rst
  LISTOUT   = POUT
 Restraints will be read from file: zinc.rst
Here are comments from the DISANG input file:

                       Number of restraints read =     5

                  Done reading weight changes/NMR restraints

 Number of triangulated 3-point waters found:    35916

     Sum of charges from parm topology file =   0.00019680
     Forcing neutrality...

--------------------------------------------------------------------------------
   4.  RESULTS
 NSTEP =        0   TIME(PS) =       0.000  TEMP(K) =     0.00  PRESS =     0.0
 Etot   =   -556778.9652  EKtot   =         0.0000  EPtot      =   -556778.9652
 BOND   =    165534.4414  ANGLE   =      4967.9316  DIHED      =      3521.6924
 UB     =         0.0000  IMP     =         0.0000  CMAP       =       522.3803
 1-4 NB =      2148.9825  1-4 EEL =     24772.8632  VDWAALS    =    150157.3921
 EELEC  =   -908550.6947  EHBOND  =         0.0000  RESTRAINT  =       146.0460
 EAMBER (non-restraint)  =   -556925.0112
 EKCMT  =         0.0000  VIRIAL  =         0.0000  VOLUME     =   1133775.2314
                                                    Density    =         1.0464
 ------------------------------------------------------------------------------

      A V E R A G E S   O V E R      50 S T E P S

 NSTEP =    50000   TIME(PS) =      50.000  TEMP(K) =   309.51  PRESS =     0.0
 Etot   =   -450125.0543  EKtot   =    108171.4114  EPtot      =   -558296.4657
 BOND   =    166150.2474  ANGLE   =      4959.6221  DIHED      =      3542.9427
 UB     =         0.0000  IMP     =         0.0000  CMAP       =       491.1153
 1-4 NB =      2141.8161  1-4 EEL =     24716.0522  VDWAALS    =    151257.8910
 EELEC  =   -911605.9078  EHBOND  =         0.0000  RESTRAINT  =        49.7552
 EAMBER (non-restraint)  =   -558346.2210
 EKCMT  =         0.0000  VIRIAL  =         0.0000  VOLUME     =   1130618.9016
                                                    Density    =         1.0493
 ------------------------------------------------------------------------------

      R M S  F L U C T U A T I O N S

 NSTEP =    50000   TIME(PS) =      50.000  TEMP(K) =     3.23  PRESS =     0.0
 Etot   =      2569.5844  EKtot   =      1128.5705  EPtot      =      1504.2260
 BOND   =       546.6859  ANGLE   =        60.4821  DIHED      =        27.1773
 UB     =         0.0000  IMP     =         0.0000  CMAP       =        11.2007
 1-4 NB =        19.0743  1-4 EEL =        53.2175  VDWAALS    =       846.4167
 EELEC  =      2401.2759  EHBOND  =         0.0000  RESTRAINT  =         4.1941
 EAMBER (non-restraint)  =      1500.0319
 EKCMT  =         0.0000  VIRIAL  =         0.0000  VOLUME     =      1123.0091
                                                    Density    =         0.0010
 ------------------------------------------------------------------------------
