-------------------------------------------------------
          Amber 20 PMEMD                              2020
          -------------------------------------------------------

  [-O]verwriting output

File Assignments:

 Here is the input file:

 MD simulations
&cntrl
 imin=0,           ! Perform MD (1=energy minimization)
 nstlim=1000000   ! Number of MD steps
 ntx=5,            ! Both positions and velocities are read (1=only read positi
 irest=1,          ! Restart ("continue" should be better word) calculation (0=
 ntc=2,            ! SHAKE on for bonds with hydrogen (SHAKE restricts bond str
 dt=0.004,         ! Timestep (ps)
 ntb=1,            ! 2=Constant Pressure, default when ntp>0. Unit cell size ch
 igb=0,            !
 ntp=0,            ! 1=Isotropic pressure scaling (0=no scaling) (should be 1 o
 barostat=2        ! 1=Berendsen barostat, 2=montecarlo thermostat, p339 amber
 taup=0.5          ! Pressure relaxtion time (ps)
 ntf=2,            ! No force evaluation for bonds with hydrogen (1=complete fo
 ntt=3,            ! Langevin thermostat (0=constant total energy, p337 manual)
 gamma_ln=0.01       ! Collision Frequency for thermostat
 ig=-1,            ! Random number generator for thermostat (-1=based on curren
 temp0=310,         ! Simulation temperature (K)
 ntwx= 25000,       ! Write to trajectory file every ntwx steps
 ntpr= 5000,       ! Print to mdout every ntpr steps
 ntwr= 25000,       ! Write a restart file every ntwr steps
 cut=  8,        ! Nonbonded cutoff in Angstroms
 ntr=0,            ! Turn on restraints
 restraintmask=":396>@8&!:WAT,Na+", ! atoms to be restrained (all in residue 1-
 restraint_wt=10, ! force constant for restraint
 ntxo=2,           ! Write coordinate file in NetCDF format (1=ASCII format)
 ioutfm=1,         ! Write trajectory file in NetCDF format (0=ASCII format)
 iwrap=1,          ! iwrap is turned on (0=off)
 nmropt=1,         !
/
&wt type='END' /
DISANG=zinc.rst
LISTOUT=POUT

Note: ig = -1. Setting random seed to   897570 based on wallclock time in
      microseconds.

--------------------------------------------------------------------------------
   1.  RESOURCE   USE:
--------------------------------------------------------------------------------

 getting box info from netcdf restart file
 NATOM  =  153216 NTYPES =      32 NBONH =  112542 MBONA  =   40776
 NTHETH =   10978 MTHETA =    6595 NPHIH =   21968 MPHIA  =   21108
 NHPARM =       0 NPARM  =       0 NNB   =  304497 NRES   =   36505
 NBONA  =   40776 NTHETA =    6595 NPHIA =   21108 NUMBND =     104
 NUMANG =     238 NPTRA  =     234 NATYP =      57 NPHB   =       1
 IFBOX  =       2 NMXRS  =      77 IFCAP =       0 NEXTRA =   35910
 NCOPY  =       0

     BOX TYPE: TRUNCATED OCTAHEDRON

--------------------------------------------------------------------------------
   2.  CONTROL  DATA  FOR  THE  RUN
--------------------------------------------------------------------------------

default_name

General flags:
     imin    =       0, nmropt  =       1

Nature and format of input:
     ntx     =       5, irest   =       1, ntrx    =       1

Nature and format of output:
     ntxo    =       2, ntpr    =    5000, ntrx    =       1, ntwr    =   25000
     iwrap   =       1, ntwx    =   25000, ntwv    =       0, ntwe    =       0
     ioutfm  =       1, ntwprt  =       0, idecomp =       0, rbornstat=      0

Potential function:
     ntf     =       2, ntb     =       1, igb     =       0, nsnb    =      25
     ipol    =       0, gbsa    =       0, iesp    =       0
     dielc   =   1.00000, cut     =   8.00000, intdiel =   1.00000

Frozen or restrained atoms:
     ibelly  =       0, ntr     =       0

Molecular dynamics:
     nstlim  =   1000000, nscm    =      1000, nrespa  =         1
     t       =   0.00000, dt      =   0.00400, vlimit  =  -1.00000

Langevin dynamics temperature regulation:
     ig      =  897570
     temp0   = 310.00000, tempi   =   0.00000, gamma_ln=   0.01000

SHAKE:
     ntc     =       2, jfastw  =       0
     tol     =   0.00001

NMR refinement options:
     iscale  =       0, noeskp  =       1, ipnlty  =       1, mxsub   =       1
     scalm   = 100.00000, pencut  =   0.10000, tausw   =   0.10000

Extra-points options:
     frameon =       1, chngmask=       1

Ewald parameters:
     verbose =       0, ew_type =       0, nbflag  =       1, use_pme =       1
     vdwmeth =       1, eedmeth =       1, netfrc  =       1
     Box X =  113.669   Box Y =  113.669   Box Z =  113.669
     Alpha =  109.471   Beta  =  109.471   Gamma =  109.471
     NFFT1 =  120       NFFT2 =  120       NFFT3 =  120
     Cutoff=    8.000   Tol   =0.100E-04
     Ewald Coefficient =  0.34864
     Interpolation order =    4

--------------------------------------------------------------------------------
   3.  ATOMIC COORDINATES AND VELOCITIES
--------------------------------------------------------------------------------

default_name
 begin time read from input coords =    50.000 ps

           Begin reading energy term weight changes/NMR restraints
 WEIGHT CHANGES:
                         ** No weight changes given **

 RESTRAINTS:
 Requested file redirections:
  DISANG    = zinc.rst
  LISTOUT   = POUT
 Restraints will be read from file: zinc.rst
Here are comments from the DISANG input file:

                       Number of restraints read =     5

                  Done reading weight changes/NMR restraints

 Number of triangulated 3-point waters found:    35910

     Sum of charges from parm topology file =   0.00119675
     Forcing neutrality...

--------------------------------------------------------------------------------
   4.  RESULTS
 NSTEP =     5000   TIME(PS) =      70.000  TEMP(K) =   288.37  PRESS =     0.0
 Etot   =   -393766.5918  EKtot   =     68586.2031  EPtot      =   -462352.7950
 BOND   =      1943.1539  ANGLE   =      5026.6969  DIHED      =      3529.4299
 UB     =         0.0000  IMP     =         0.0000  CMAP       =       437.1552
 1-4 NB =      2168.7451  1-4 EEL =     24652.3467  VDWAALS    =     59409.6655
 EELEC  =   -559556.0914  EHBOND  =         0.0000  RESTRAINT  =        36.1032
 EAMBER (non-restraint)  =   -462388.8982
 ------------------------------------------------------------------------------

      A V E R A G E S   O V E R     200 S T E P S

 NSTEP =  1000000   TIME(PS) =    4050.000  TEMP(K) =   309.49  PRESS =     0.0
 Etot   =   -377614.6044  EKtot   =     73610.4659  EPtot      =   -451225.0702
 BOND   =      2025.5533  ANGLE   =      5241.8336  DIHED      =      3473.0264
 UB     =         0.0000  IMP     =         0.0000  CMAP       =       436.1022
 1-4 NB =      2156.1698  1-4 EEL =     24657.0026  VDWAALS    =     55206.3293
 EELEC  =   -544455.8913  EHBOND  =         0.0000  RESTRAINT  =        34.8039
 EAMBER (non-restraint)  =   -451259.8742
 ------------------------------------------------------------------------------

      R M S  F L U C T U A T I O N S

 NSTEP =  1000000   TIME(PS) =    4050.000  TEMP(K) =     3.37  PRESS =     0.0
 Etot   =      2343.3383  EKtot   =       801.1031  EPtot      =      1571.0888
 BOND   =        41.2590  ANGLE   =        66.0851  DIHED      =        31.5489
 UB     =         0.0000  IMP     =         0.0000  CMAP       =        13.9293
 1-4 NB =        19.6373  1-4 EEL =        63.8360  VDWAALS    =       679.9376
 EELEC  =      2159.3169  EHBOND  =         0.0000  RESTRAINT  =         3.6187
 EAMBER (non-restraint)  =      1567.4701
 ------------------------------------------------------------------------------
