-------------------------------------------------------
          Amber 20 PMEMD                              2020
          -------------------------------------------------------

  [-O]verwriting output

File Assignments:

 Here is the input file:

 MD simualation
&cntrl
 imin=0,           ! Perform MD
 nstlim=50000      ! Number of MD steps
 ntb=2,            ! 2=Constant Pressure, default when ntp>0. Unit cell size ch
 igb=0,            ! 1,2,5,8=implicit solvent
 ntc=1,            ! 2=SHAKE on for bonds with hydrogen (SHAKE restricts bond s
 dt=0.001,         ! Timestep (ps)
 ntp=1,            ! 1=Isotropic pressure scaling (0=no scaling) (should be 1 o
 barostat=2        ! 1=Berendsen barostat, 2=montecarlo thermostat, p339 amber
 taup=0.5          ! Pressure relaxtion time (ps)
 ntf=1,            ! 2=No force evaluation for bonds with hydrogen (1=complete
 ntt=3,            ! Langevin thermostat (0=constant total energy, p337 manual)
 gamma_ln=2.0      ! Collision Frequency for thermostat
 ig=-1,            ! Random seed for thermostat
 temp0=310         ! Simulation temperature (K)
 ntwx= 10000,        ! Write to trajectory file every ntwx steps
 ntpr= 1000,        ! Print to mdout every ntpr steps
 ntwr= 10000,        ! Write a restart file every ntwr steps
 cut=8,          ! Nonbonded cutoff in Angstroms
 ntr=1,            ! Turn on restraints
 restraintmask=":1-594 & !@H=", ! atoms to be restrained (all in BRD4 but not H
 restraint_wt=1, ! force constant for restraint
 ntxo=2,           ! 1=Write coordinate file in ASCII format, 2=NetCDF
 ioutfm=1,         ! 0=Write trajectory file in ASCII format, 1=NetCDF
 nmropt=1,         !
/
&wt type='END' /
DISANG=zinc.rst
LISTOUT=POUT

Note: ig = -1. Setting random seed to   576415 based on wallclock time in
      microseconds.

--------------------------------------------------------------------------------
   1.  RESOURCE   USE:
--------------------------------------------------------------------------------

 getting box info from netcdf restart file
 NATOM  =  146551 NTYPES =      19 NBONH =  107571 MBONA  =   39076
 NTHETH =   10912 MTHETA =    6520 NPHIH =   21834 MPHIA  =   20975
 NHPARM =       0 NPARM  =       0 NNB   =  292548 NRES   =   34857
 NBONA  =   39076 NTHETA =    6520 NPHIA =   20975 NUMBND =      78
 NUMANG =     184 NPTRA  =     202 NATYP =      39 NPHB   =       1
 IFBOX  =       2 NMXRS  =      24 IFCAP =       0 NEXTRA =   34263
 NCOPY  =       0

     BOX TYPE: TRUNCATED OCTAHEDRON

--------------------------------------------------------------------------------
   2.  CONTROL  DATA  FOR  THE  RUN
--------------------------------------------------------------------------------

default_name

General flags:
     imin    =       0, nmropt  =       1

Nature and format of input:
     ntx     =       1, irest   =       0, ntrx    =       1

Nature and format of output:
     ntxo    =       2, ntpr    =    1000, ntrx    =       1, ntwr    =   10000
     iwrap   =       0, ntwx    =   10000, ntwv    =       0, ntwe    =       0
     ioutfm  =       1, ntwprt  =       0, idecomp =       0, rbornstat=      0

Potential function:
     ntf     =       1, ntb     =       2, igb     =       0, nsnb    =      25
     ipol    =       0, gbsa    =       0, iesp    =       0
     dielc   =   1.00000, cut     =   8.00000, intdiel =   1.00000

Frozen or restrained atoms:
     ibelly  =       0, ntr     =       1
     restraint_wt =   1.00000

Molecular dynamics:
     nstlim  =     50000, nscm    =         0, nrespa  =         1
     t       =   0.00000, dt      =   0.00100, vlimit  =  -1.00000

Langevin dynamics temperature regulation:
     ig      =  576415
     temp0   = 310.00000, tempi   =   0.00000, gamma_ln=   2.00000

Pressure regulation:
     ntp     =       1
     pres0   =   1.00000, comp    =  44.60000, taup    =   0.50000
     Monte-Carlo Barostat:
     mcbarint  =     100

NMR refinement options:
     iscale  =       0, noeskp  =       1, ipnlty  =       1, mxsub   =       1
     scalm   = 100.00000, pencut  =   0.10000, tausw   =   0.10000

Extra-points options:
     frameon =       1, chngmask=       1

Ewald parameters:
     verbose =       0, ew_type =       0, nbflag  =       1, use_pme =       1
     vdwmeth =       1, eedmeth =       1, netfrc  =       1
     Box X =  112.282   Box Y =  112.282   Box Z =  112.282
     Alpha =  109.471   Beta  =  109.471   Gamma =  109.471
     NFFT1 =  120       NFFT2 =  120       NFFT3 =  120
     Cutoff=    8.000   Tol   =0.100E-04
     Ewald Coefficient =  0.34864
     Interpolation order =    4

    LOADING THE CONSTRAINED ATOMS AS GROUPS

   5.  REFERENCE ATOM COORDINATES

  default_name
     Mask :1-594 & !@H=; matches  4717 atoms

--------------------------------------------------------------------------------
   3.  ATOMIC COORDINATES AND VELOCITIES
--------------------------------------------------------------------------------

default_name
 begin time read from input coords =    50.000 ps

           Begin reading energy term weight changes/NMR restraints
 WEIGHT CHANGES:
                         ** No weight changes given **

 RESTRAINTS:
 Requested file redirections:
  DISANG    = zinc.rst
  LISTOUT   = POUT
 Restraints will be read from file: zinc.rst
Here are comments from the DISANG input file:

                       Number of restraints read =     4

                  Done reading weight changes/NMR restraints

 Number of triangulated 3-point waters found:    34263

     Sum of charges from parm topology file =   0.00018773
     Forcing neutrality...

--------------------------------------------------------------------------------
   4.  RESULTS
 NSTEP =        0   TIME(PS) =       0.000  TEMP(K) =     0.00  PRESS =     0.0
 Etot   =   -529748.9106  EKtot   =         0.0000  EPtot      =   -529748.9106
 BOND   =    156523.6008  ANGLE   =      4824.3961  DIHED      =      3357.7164
 UB     =         0.0000  IMP     =         0.0000  CMAP       =       443.9621
 1-4 NB =      2100.2232  1-4 EEL =     24736.1959  VDWAALS    =    141325.4721
 EELEC  =   -863075.5309  EHBOND  =         0.0000  RESTRAINT  =        15.0536
 EAMBER (non-restraint)  =   -529763.9642
 EKCMT  =         0.0000  VIRIAL  =         0.0000  VOLUME     =   1089710.9397
                                                    Density    =         1.0433
 ------------------------------------------------------------------------------

      A V E R A G E S   O V E R      50 S T E P S

 NSTEP =    50000   TIME(PS) =      50.000  TEMP(K) =   309.20  PRESS =     0.0
 Etot   =   -427767.8512  EKtot   =    103489.9752  EPtot      =   -531257.8263
 BOND   =    157938.4088  ANGLE   =      4900.7606  DIHED      =      3383.1823
 UB     =         0.0000  IMP     =         0.0000  CMAP       =       444.4750
 1-4 NB =      2128.3977  1-4 EEL =     24716.6040  VDWAALS    =    142567.5069
 EELEC  =   -867863.1355  EHBOND  =         0.0000  RESTRAINT  =       525.9739
 EAMBER (non-restraint)  =   -531783.8002
 EKCMT  =         0.0000  VIRIAL  =         0.0000  VOLUME     =   1084710.9838
                                                    Density    =         1.0481
 ------------------------------------------------------------------------------

      R M S  F L U C T U A T I O N S

 NSTEP =    50000   TIME(PS) =      50.000  TEMP(K) =     3.12  PRESS =     0.0
 Etot   =      2364.1402  EKtot   =      1044.3299  EPtot      =      1382.1820
 BOND   =       410.0638  ANGLE   =        62.8936  DIHED      =        32.1573
 UB     =         0.0000  IMP     =         0.0000  CMAP       =         7.9323
 1-4 NB =        17.3949  1-4 EEL =        50.8926  VDWAALS    =       716.3349
 EELEC  =      1907.8442  EHBOND  =         0.0000  RESTRAINT  =        18.3545
 EAMBER (non-restraint)  =      1363.8274
 EKCMT  =         0.0000  VIRIAL  =         0.0000  VOLUME     =      1079.4289
                                                    Density    =         0.0010
 ------------------------------------------------------------------------------
