-------------------------------------------------------
          Amber 20 PMEMD                              2020
          -------------------------------------------------------

  [-O]verwriting output

File Assignments:

 Here is the input file:

 MD simualation
&cntrl
 imin=0,           ! Perform MD
 nstlim=50000      ! Number of MD steps
 ntb=2,            ! 2=Constant Pressure, default when ntp>0. Unit cell size ch
 igb=0,            ! 1,2,5,8=implicit solvent
 ntc=1,            ! 2=SHAKE on for bonds with hydrogen (SHAKE restricts bond s
 dt=0.001,         ! Timestep (ps)
 ntp=1,            ! 1=Isotropic pressure scaling (0=no scaling) (should be 1 o
 barostat=2        ! 1=Berendsen barostat, 2=montecarlo thermostat, p339 amber
 taup=0.5          ! Pressure relaxtion time (ps)
 ntf=1,            ! 2=No force evaluation for bonds with hydrogen (1=complete
 ntt=3,            ! Langevin thermostat (0=constant total energy, p337 manual)
 gamma_ln=2.0      ! Collision Frequency for thermostat
 ig=-1,            ! Random seed for thermostat
 temp0=310         ! Simulation temperature (K)
 ntwx= 10000,        ! Write to trajectory file every ntwx steps
 ntpr= 1000,        ! Print to mdout every ntpr steps
 ntwr= 10000,        ! Write a restart file every ntwr steps
 cut=8,          ! Nonbonded cutoff in Angstroms
 ntr=1,            ! Turn on restraints
 restraintmask=":1-595 & !@H=", ! atoms to be restrained (all in BRD4 but not H
 restraint_wt=1, ! force constant for restraint
 ntxo=2,           ! 1=Write coordinate file in ASCII format, 2=NetCDF
 ioutfm=1,         ! 0=Write trajectory file in ASCII format, 1=NetCDF
 nmropt=1,         !
/
&wt type='END' /
DISANG=zinc.rst
LISTOUT=POUT

Note: ig = -1. Setting random seed to    67375 based on wallclock time in
      microseconds.

--------------------------------------------------------------------------------
   1.  RESOURCE   USE:
--------------------------------------------------------------------------------

 getting box info from netcdf restart file
 NATOM  =  164468 NTYPES =      32 NBONH =  120981 MBONA  =   43589
 NTHETH =   10978 MTHETA =    6595 NPHIH =   21968 MPHIA  =   21108
 NHPARM =       0 NPARM  =       0 NNB   =  324188 NRES   =   39318
 NBONA  =   43589 NTHETA =    6595 NPHIA =   21108 NUMBND =     104
 NUMANG =     238 NPTRA  =     234 NATYP =      57 NPHB   =       1
 IFBOX  =       2 NMXRS  =      77 IFCAP =       0 NEXTRA =   38723
 NCOPY  =       0

     BOX TYPE: TRUNCATED OCTAHEDRON

--------------------------------------------------------------------------------
   2.  CONTROL  DATA  FOR  THE  RUN
--------------------------------------------------------------------------------

default_name

General flags:
     imin    =       0, nmropt  =       1

Nature and format of input:
     ntx     =       1, irest   =       0, ntrx    =       1

Nature and format of output:
     ntxo    =       2, ntpr    =    1000, ntrx    =       1, ntwr    =   10000
     iwrap   =       0, ntwx    =   10000, ntwv    =       0, ntwe    =       0
     ioutfm  =       1, ntwprt  =       0, idecomp =       0, rbornstat=      0

Potential function:
     ntf     =       1, ntb     =       2, igb     =       0, nsnb    =      25
     ipol    =       0, gbsa    =       0, iesp    =       0
     dielc   =   1.00000, cut     =   8.00000, intdiel =   1.00000

Frozen or restrained atoms:
     ibelly  =       0, ntr     =       1
     restraint_wt =   1.00000

Molecular dynamics:
     nstlim  =     50000, nscm    =         0, nrespa  =         1
     t       =   0.00000, dt      =   0.00100, vlimit  =  -1.00000

Langevin dynamics temperature regulation:
     ig      =   67375
     temp0   = 310.00000, tempi   =   0.00000, gamma_ln=   2.00000

Pressure regulation:
     ntp     =       1
     pres0   =   1.00000, comp    =  44.60000, taup    =   0.50000
     Monte-Carlo Barostat:
     mcbarint  =     100

NMR refinement options:
     iscale  =       0, noeskp  =       1, ipnlty  =       1, mxsub   =       1
     scalm   = 100.00000, pencut  =   0.10000, tausw   =   0.10000

Extra-points options:
     frameon =       1, chngmask=       1

Ewald parameters:
     verbose =       0, ew_type =       0, nbflag  =       1, use_pme =       1
     vdwmeth =       1, eedmeth =       1, netfrc  =       1
     Box X =  116.491   Box Y =  116.491   Box Z =  116.491
     Alpha =  109.471   Beta  =  109.471   Gamma =  109.471
     NFFT1 =  128       NFFT2 =  128       NFFT3 =  128
     Cutoff=    8.000   Tol   =0.100E-04
     Ewald Coefficient =  0.34864
     Interpolation order =    4

    LOADING THE CONSTRAINED ATOMS AS GROUPS

   5.  REFERENCE ATOM COORDINATES

  default_name
     Mask :1-595 & !@H=; matches  4764 atoms

--------------------------------------------------------------------------------
   3.  ATOMIC COORDINATES AND VELOCITIES
--------------------------------------------------------------------------------

default_name
 begin time read from input coords =    50.000 ps

           Begin reading energy term weight changes/NMR restraints
 WEIGHT CHANGES:
                         ** No weight changes given **

 RESTRAINTS:
 Requested file redirections:
  DISANG    = zinc.rst
  LISTOUT   = POUT
 Restraints will be read from file: zinc.rst
Here are comments from the DISANG input file:

                       Number of restraints read =     4

                  Done reading weight changes/NMR restraints

 Number of triangulated 3-point waters found:    38723

     Sum of charges from parm topology file =   0.00521219
     Forcing neutrality...

--------------------------------------------------------------------------------
   4.  RESULTS
 NSTEP =        0   TIME(PS) =       0.000  TEMP(K) =     0.00  PRESS =     0.0
 Etot   =   -596605.3580  EKtot   =         0.0000  EPtot      =   -596605.3580
 BOND   =    176800.3512  ANGLE   =      4972.7734  DIHED      =      3363.9680
 UB     =         0.0000  IMP     =         0.0000  CMAP       =       435.0200
 1-4 NB =      2119.8260  1-4 EEL =     24595.8283  VDWAALS    =    160069.1381
 EELEC  =   -968979.3762  EHBOND  =         0.0000  RESTRAINT  =        17.1132
 EAMBER (non-restraint)  =   -596622.4712
 EKCMT  =         0.0000  VIRIAL  =         0.0000  VOLUME     =   1216908.5672
                                                    Density    =         1.0448
 ------------------------------------------------------------------------------

      A V E R A G E S   O V E R      50 S T E P S

 NSTEP =    50000   TIME(PS) =      50.000  TEMP(K) =   309.49  PRESS =     0.0
 Etot   =   -482627.6726  EKtot   =    116000.9688  EPtot      =   -598628.6413
 BOND   =    178135.1825  ANGLE   =      4955.3205  DIHED      =      3443.5157
 UB     =         0.0000  IMP     =         0.0000  CMAP       =       438.0231
 1-4 NB =      2144.9514  1-4 EEL =     24695.8545  VDWAALS    =    162090.0483
 EELEC  =   -975074.2504  EHBOND  =         0.0000  RESTRAINT  =       542.7130
 EAMBER (non-restraint)  =   -599171.3543
 EKCMT  =         0.0000  VIRIAL  =         0.0000  VOLUME     =   1214234.0542
                                                    Density    =         1.0471
 ------------------------------------------------------------------------------

      R M S  F L U C T U A T I O N S

 NSTEP =    50000   TIME(PS) =      50.000  TEMP(K) =     3.13  PRESS =     0.0
 Etot   =      2663.8973  EKtot   =      1174.1585  EPtot      =      1590.2406
 BOND   =       638.8213  ANGLE   =        66.4718  DIHED      =        28.0197
 UB     =         0.0000  IMP     =         0.0000  CMAP       =         8.8297
 1-4 NB =        19.0492  1-4 EEL =        52.3345  VDWAALS    =       758.4705
 EELEC  =      2239.4299  EHBOND  =         0.0000  RESTRAINT  =        21.8818
 EAMBER (non-restraint)  =      1568.3588
 EKCMT  =         0.0000  VIRIAL  =         0.0000  VOLUME     =       989.3514
                                                    Density    =         0.0009
 ------------------------------------------------------------------------------
