-------------------------------------------------------
          Amber 20 PMEMD                              2020
          -------------------------------------------------------

  [-O]verwriting output

File Assignments:

 Here is the input file:

 MD simulations
&cntrl
 imin=0,           ! Perform MD (1=energy minimization)
 nstlim=1000000   ! Number of MD steps
 ntx=5,            ! Both positions and velocities are read (1=only read positi
 irest=1,          ! Restart ("continue" should be better word) calculation (0=
 ntc=2,            ! SHAKE on for bonds with hydrogen (SHAKE restricts bond str
 dt=0.004,         ! Timestep (ps)
 ntb=1,            ! 2=Constant Pressure, default when ntp>0. Unit cell size ch
 igb=0,            !
 ntp=0,            ! 1=Isotropic pressure scaling (0=no scaling) (should be 1 o
 barostat=2        ! 1=Berendsen barostat, 2=montecarlo thermostat, p339 amber
 taup=0.5          ! Pressure relaxtion time (ps)
 ntf=2,            ! No force evaluation for bonds with hydrogen (1=complete fo
 ntt=3,            ! Langevin thermostat (0=constant total energy, p337 manual)
 gamma_ln=0.01       ! Collision Frequency for thermostat
 ig=-1,            ! Random number generator for thermostat (-1=based on curren
 temp0=310,         ! Simulation temperature (K)
 ntwx= 25000,       ! Write to trajectory file every ntwx steps
 ntpr= 5000,       ! Print to mdout every ntpr steps
 ntwr= 25000,       ! Write a restart file every ntwr steps
 cut=  8,        ! Nonbonded cutoff in Angstroms
 ntr=0,            ! Turn on restraints
 restraintmask=":396>@8&!:WAT,Na+", ! atoms to be restrained (all in residue 1-
 restraint_wt=10, ! force constant for restraint
 ntxo=2,           ! Write coordinate file in NetCDF format (1=ASCII format)
 ioutfm=1,         ! Write trajectory file in NetCDF format (0=ASCII format)
 iwrap=1,          ! iwrap is turned on (0=off)
 nmropt=1,         !
/
&wt type='END' /
DISANG=zinc.rst
LISTOUT=POUT

Note: ig = -1. Setting random seed to   583501 based on wallclock time in
      microseconds.

--------------------------------------------------------------------------------
   1.  RESOURCE   USE:
--------------------------------------------------------------------------------

 getting box info from netcdf restart file
 NATOM  =  153225 NTYPES =      30 NBONH =  112557 MBONA  =   40767
 NTHETH =   10953 MTHETA =    6572 NPHIH =   21920 MPHIA  =   21067
 NHPARM =       0 NPARM  =       0 NNB   =  304420 NRES   =   36514
 NBONA  =   40767 NTHETA =    6572 NPHIA =   21067 NUMBND =      94
 NUMANG =     220 NPTRA  =     222 NATYP =      51 NPHB   =       1
 IFBOX  =       2 NMXRS  =      50 IFCAP =       0 NEXTRA =   35919
 NCOPY  =       0

     BOX TYPE: TRUNCATED OCTAHEDRON

--------------------------------------------------------------------------------
   2.  CONTROL  DATA  FOR  THE  RUN
--------------------------------------------------------------------------------

default_name

General flags:
     imin    =       0, nmropt  =       1

Nature and format of input:
     ntx     =       5, irest   =       1, ntrx    =       1

Nature and format of output:
     ntxo    =       2, ntpr    =    5000, ntrx    =       1, ntwr    =   25000
     iwrap   =       1, ntwx    =   25000, ntwv    =       0, ntwe    =       0
     ioutfm  =       1, ntwprt  =       0, idecomp =       0, rbornstat=      0

Potential function:
     ntf     =       2, ntb     =       1, igb     =       0, nsnb    =      25
     ipol    =       0, gbsa    =       0, iesp    =       0
     dielc   =   1.00000, cut     =   8.00000, intdiel =   1.00000

Frozen or restrained atoms:
     ibelly  =       0, ntr     =       0

Molecular dynamics:
     nstlim  =   1000000, nscm    =      1000, nrespa  =         1
     t       =   0.00000, dt      =   0.00400, vlimit  =  -1.00000

Langevin dynamics temperature regulation:
     ig      =  583501
     temp0   = 310.00000, tempi   =   0.00000, gamma_ln=   0.01000

SHAKE:
     ntc     =       2, jfastw  =       0
     tol     =   0.00001

NMR refinement options:
     iscale  =       0, noeskp  =       1, ipnlty  =       1, mxsub   =       1
     scalm   = 100.00000, pencut  =   0.10000, tausw   =   0.10000

Extra-points options:
     frameon =       1, chngmask=       1

Ewald parameters:
     verbose =       0, ew_type =       0, nbflag  =       1, use_pme =       1
     vdwmeth =       1, eedmeth =       1, netfrc  =       1
     Box X =  113.697   Box Y =  113.697   Box Z =  113.697
     Alpha =  109.471   Beta  =  109.471   Gamma =  109.471
     NFFT1 =  120       NFFT2 =  120       NFFT3 =  120
     Cutoff=    8.000   Tol   =0.100E-04
     Ewald Coefficient =  0.34864
     Interpolation order =    4

--------------------------------------------------------------------------------
   3.  ATOMIC COORDINATES AND VELOCITIES
--------------------------------------------------------------------------------

default_name
 begin time read from input coords =    50.000 ps

           Begin reading energy term weight changes/NMR restraints
 WEIGHT CHANGES:
                         ** No weight changes given **

 RESTRAINTS:
 Requested file redirections:
  DISANG    = zinc.rst
  LISTOUT   = POUT
 Restraints will be read from file: zinc.rst
Here are comments from the DISANG input file:

                       Number of restraints read =     5

                  Done reading weight changes/NMR restraints

 Number of triangulated 3-point waters found:    35919

     Sum of charges from parm topology file =   0.00119680
     Forcing neutrality...

--------------------------------------------------------------------------------
   4.  RESULTS
 NSTEP =     5000   TIME(PS) =      70.000  TEMP(K) =   286.88  PRESS =     0.0
 Etot   =   -394205.3180  EKtot   =     68227.3672  EPtot      =   -462432.6851
 BOND   =      1958.3663  ANGLE   =      5061.4448  DIHED      =      3502.7643
 UB     =         0.0000  IMP     =         0.0000  CMAP       =       461.1080
 1-4 NB =      2137.2196  1-4 EEL =     24784.2348  VDWAALS    =     59783.9724
 EELEC  =   -560169.7906  EHBOND  =         0.0000  RESTRAINT  =        47.9954
 EAMBER (non-restraint)  =   -462480.6805
 ------------------------------------------------------------------------------

      A V E R A G E S   O V E R     200 S T E P S

 NSTEP =  1000000   TIME(PS) =    4050.000  TEMP(K) =   309.66  PRESS =     0.0
 Etot   =   -377692.8202  EKtot   =     73644.7362  EPtot      =   -451337.5565
 BOND   =      2016.2780  ANGLE   =      5208.4207  DIHED      =      3456.6722
 UB     =         0.0000  IMP     =         0.0000  CMAP       =       433.0163
 1-4 NB =      2156.1997  1-4 EEL =     24706.6943  VDWAALS    =     55282.1088
 EELEC  =   -544633.1665  EHBOND  =         0.0000  RESTRAINT  =        36.2202
 EAMBER (non-restraint)  =   -451373.7767
 ------------------------------------------------------------------------------

      R M S  F L U C T U A T I O N S

 NSTEP =  1000000   TIME(PS) =    4050.000  TEMP(K) =     3.43  PRESS =     0.0
 Etot   =      2346.3632  EKtot   =       814.5702  EPtot      =      1564.2497
 BOND   =        44.2594  ANGLE   =        58.9213  DIHED      =        32.3735
 UB     =         0.0000  IMP     =         0.0000  CMAP       =        13.7142
 1-4 NB =        20.7103  1-4 EEL =        63.1320  VDWAALS    =       693.2418
 EELEC  =      2158.4247  EHBOND  =         0.0000  RESTRAINT  =         3.3483
 EAMBER (non-restraint)  =      1560.9014
 ------------------------------------------------------------------------------
