-------------------------------------------------------
          Amber 20 PMEMD                              2020
          -------------------------------------------------------

  [-O]verwriting output

File Assignments:

 Here is the input file:

 MD simualation
&cntrl
 imin=0,           ! Perform MD
 nstlim=50000      ! Number of MD steps
 ntb=2,            ! 2=Constant Pressure, default when ntp>0. Unit cell size ch
 igb=0,            ! 1,2,5,8=implicit solvent
 ntc=1,            ! 2=SHAKE on for bonds with hydrogen (SHAKE restricts bond s
 dt=0.001,         ! Timestep (ps)
 ntp=1,            ! 1=Isotropic pressure scaling (0=no scaling) (should be 1 o
 barostat=2        ! 1=Berendsen barostat, 2=montecarlo thermostat, p339 amber
 taup=0.5          ! Pressure relaxtion time (ps)
 ntf=1,            ! 2=No force evaluation for bonds with hydrogen (1=complete
 ntt=3,            ! Langevin thermostat (0=constant total energy, p337 manual)
 gamma_ln=2.0      ! Collision Frequency for thermostat
 ig=-1,            ! Random seed for thermostat
 temp0=310         ! Simulation temperature (K)
 ntwx= 10000,        ! Write to trajectory file every ntwx steps
 ntpr= 1000,        ! Print to mdout every ntpr steps
 ntwr= 10000,        ! Write a restart file every ntwr steps
 cut=8,          ! Nonbonded cutoff in Angstroms
 ntr=0,            ! Turn on restraints
 restraintmask=":1-395 &!@H=", ! atoms to be restrained (all in BRD4 but not H)
 restraint_wt=10, ! force constant for restraint
 ntxo=2,           ! 1=Write coordinate file in ASCII format, 2=NetCDF
 ntxo=2,           ! 1=Write coordinate file in ASCII format, 2=NetCDF
 ioutfm=1,         ! 0=Write trajectory file in ASCII format, 1=NetCDF
 nmropt=1,         !
/
&wt type='END' /
DISANG=zinc.rst
LISTOUT=POUT

Note: ig = -1. Setting random seed to   824499 based on wallclock time in
      microseconds.

--------------------------------------------------------------------------------
   1.  RESOURCE   USE:
--------------------------------------------------------------------------------

 getting box info from netcdf restart file
 NATOM  =  153272 NTYPES =      32 NBONH =  112584 MBONA  =   40790
 NTHETH =   10978 MTHETA =    6595 NPHIH =   21968 MPHIA  =   21108
 NHPARM =       0 NPARM  =       0 NNB   =  304595 NRES   =   36519
 NBONA  =   40790 NTHETA =    6595 NPHIA =   21108 NUMBND =     104
 NUMANG =     238 NPTRA  =     234 NATYP =      57 NPHB   =       1
 IFBOX  =       2 NMXRS  =      77 IFCAP =       0 NEXTRA =   35924
 NCOPY  =       0

     BOX TYPE: TRUNCATED OCTAHEDRON

--------------------------------------------------------------------------------
   2.  CONTROL  DATA  FOR  THE  RUN
--------------------------------------------------------------------------------

default_name

General flags:
     imin    =       0, nmropt  =       1

Nature and format of input:
     ntx     =       1, irest   =       0, ntrx    =       1

Nature and format of output:
     ntxo    =       2, ntpr    =    1000, ntrx    =       1, ntwr    =   10000
     iwrap   =       0, ntwx    =   10000, ntwv    =       0, ntwe    =       0
     ioutfm  =       1, ntwprt  =       0, idecomp =       0, rbornstat=      0

Potential function:
     ntf     =       1, ntb     =       2, igb     =       0, nsnb    =      25
     ipol    =       0, gbsa    =       0, iesp    =       0
     dielc   =   1.00000, cut     =   8.00000, intdiel =   1.00000

Frozen or restrained atoms:
     ibelly  =       0, ntr     =       0

Molecular dynamics:
     nstlim  =     50000, nscm    =      1000, nrespa  =         1
     t       =   0.00000, dt      =   0.00100, vlimit  =  -1.00000

Langevin dynamics temperature regulation:
     ig      =  824499
     temp0   = 310.00000, tempi   =   0.00000, gamma_ln=   2.00000

Pressure regulation:
     ntp     =       1
     pres0   =   1.00000, comp    =  44.60000, taup    =   0.50000
     Monte-Carlo Barostat:
     mcbarint  =     100

NMR refinement options:
     iscale  =       0, noeskp  =       1, ipnlty  =       1, mxsub   =       1
     scalm   = 100.00000, pencut  =   0.10000, tausw   =   0.10000

Extra-points options:
     frameon =       1, chngmask=       1

Ewald parameters:
     verbose =       0, ew_type =       0, nbflag  =       1, use_pme =       1
     vdwmeth =       1, eedmeth =       1, netfrc  =       1
     Box X =  113.774   Box Y =  113.774   Box Z =  113.774
     Alpha =  109.471   Beta  =  109.471   Gamma =  109.471
     NFFT1 =  120       NFFT2 =  120       NFFT3 =  120
     Cutoff=    8.000   Tol   =0.100E-04
     Ewald Coefficient =  0.34864
     Interpolation order =    4

--------------------------------------------------------------------------------
   3.  ATOMIC COORDINATES AND VELOCITIES
--------------------------------------------------------------------------------

default_name
 begin time read from input coords =    50.000 ps

           Begin reading energy term weight changes/NMR restraints
 WEIGHT CHANGES:
                         ** No weight changes given **

 RESTRAINTS:
 Requested file redirections:
  DISANG    = zinc.rst
  LISTOUT   = POUT
 Restraints will be read from file: zinc.rst
Here are comments from the DISANG input file:

                       Number of restraints read =     5

                  Done reading weight changes/NMR restraints

 Number of triangulated 3-point waters found:    35924

     Sum of charges from parm topology file =   0.00319683
     Forcing neutrality...

--------------------------------------------------------------------------------
   4.  RESULTS
 NSTEP =        0   TIME(PS) =       0.000  TEMP(K) =     0.00  PRESS =     0.0
 Etot   =   -556795.6724  EKtot   =         0.0000  EPtot      =   -556795.6724
 BOND   =    165263.4420  ANGLE   =      4896.7209  DIHED      =      3583.1977
 UB     =         0.0000  IMP     =         0.0000  CMAP       =       503.3452
 1-4 NB =      2197.0265  1-4 EEL =     24899.1159  VDWAALS    =    150831.2940
 EELEC  =   -909084.0262  EHBOND  =         0.0000  RESTRAINT  =       114.2117
 EAMBER (non-restraint)  =   -556909.8841
 EKCMT  =         0.0000  VIRIAL  =         0.0000  VOLUME     =   1133723.2414
                                                    Density    =         1.0476
 ------------------------------------------------------------------------------

      A V E R A G E S   O V E R      50 S T E P S

 NSTEP =    50000   TIME(PS) =      50.000  TEMP(K) =   309.37  PRESS =     0.0
 Etot   =   -450317.0078  EKtot   =    108213.0406  EPtot      =   -558530.0484
 BOND   =    166394.8296  ANGLE   =      5019.3835  DIHED      =      3593.5427
 UB     =         0.0000  IMP     =         0.0000  CMAP       =       476.9053
 1-4 NB =      2155.9610  1-4 EEL =     24759.9770  VDWAALS    =    151377.9822
 EELEC  =   -912360.6834  EHBOND  =         0.0000  RESTRAINT  =        52.0537
 EAMBER (non-restraint)  =   -558582.1021
 EKCMT  =         0.0000  VIRIAL  =         0.0000  VOLUME     =   1131463.1244
                                                    Density    =         1.0497
 ------------------------------------------------------------------------------

      R M S  F L U C T U A T I O N S

 NSTEP =    50000   TIME(PS) =      50.000  TEMP(K) =     3.07  PRESS =     0.0
 Etot   =      2470.4852  EKtot   =      1074.1191  EPtot      =      1449.0205
 BOND   =       449.5307  ANGLE   =        62.1190  DIHED      =        26.7652
 UB     =         0.0000  IMP     =         0.0000  CMAP       =        11.0260
 1-4 NB =        23.0629  1-4 EEL =        60.5696  VDWAALS    =       733.0624
 EELEC  =      2149.9893  EHBOND  =         0.0000  RESTRAINT  =         4.5178
 EAMBER (non-restraint)  =      1444.5026
 EKCMT  =         0.0000  VIRIAL  =         0.0000  VOLUME     =       858.1200
                                                    Density    =         0.0008
 ------------------------------------------------------------------------------
