-------------------------------------------------------
          Amber 20 PMEMD                              2020
          -------------------------------------------------------

  [-O]verwriting output

File Assignments:

 Here is the input file:

 MD simulations
&cntrl
 imin=0,           ! Perform MD (1=energy minimization)
 nstlim=1000000   ! Number of MD steps
 ntx=5,            ! Both positions and velocities are read (1=only read positi
 irest=1,          ! Restart ("continue" should be better word) calculation (0=
 ntc=2,            ! SHAKE on for bonds with hydrogen (SHAKE restricts bond str
 dt=0.004,         ! Timestep (ps)
 ntb=1,            ! 2=Constant Pressure, default when ntp>0. Unit cell size ch
 igb=0,            !
 ntp=0,            ! 1=Isotropic pressure scaling (0=no scaling) (should be 1 o
 barostat=2        ! 1=Berendsen barostat, 2=montecarlo thermostat, p339 amber
 taup=0.5          ! Pressure relaxtion time (ps)
 ntf=2,            ! No force evaluation for bonds with hydrogen (1=complete fo
 ntt=3,            ! Langevin thermostat (0=constant total energy, p337 manual)
 gamma_ln=0.01       ! Collision Frequency for thermostat
 ig=-1,            ! Random number generator for thermostat (-1=based on curren
 temp0=310,         ! Simulation temperature (K)
 ntwx= 25000,       ! Write to trajectory file every ntwx steps
 ntpr= 5000,       ! Print to mdout every ntpr steps
 ntwr= 25000,       ! Write a restart file every ntwr steps
 cut=  8,        ! Nonbonded cutoff in Angstroms
 ntr=0,            ! Turn on restraints
 restraintmask=":396>@8&!:WAT,Na+", ! atoms to be restrained (all in residue 1-
 restraint_wt=10, ! force constant for restraint
 ntxo=2,           ! Write coordinate file in NetCDF format (1=ASCII format)
 ioutfm=1,         ! Write trajectory file in NetCDF format (0=ASCII format)
 iwrap=1,          ! iwrap is turned on (0=off)
 nmropt=1,         !
/
&wt type='END' /
DISANG=zinc.rst
LISTOUT=POUT

Note: ig = -1. Setting random seed to   787210 based on wallclock time in
      microseconds.

--------------------------------------------------------------------------------
   1.  RESOURCE   USE:
--------------------------------------------------------------------------------

 getting box info from netcdf restart file
 NATOM  =  153228 NTYPES =      32 NBONH =  112551 MBONA  =   40779
 NTHETH =   10978 MTHETA =    6595 NPHIH =   21968 MPHIA  =   21108
 NHPARM =       0 NPARM  =       0 NNB   =  304518 NRES   =   36508
 NBONA  =   40779 NTHETA =    6595 NPHIA =   21108 NUMBND =     104
 NUMANG =     238 NPTRA  =     234 NATYP =      57 NPHB   =       1
 IFBOX  =       2 NMXRS  =      77 IFCAP =       0 NEXTRA =   35913
 NCOPY  =       0

     BOX TYPE: TRUNCATED OCTAHEDRON

--------------------------------------------------------------------------------
   2.  CONTROL  DATA  FOR  THE  RUN
--------------------------------------------------------------------------------

default_name

General flags:
     imin    =       0, nmropt  =       1

Nature and format of input:
     ntx     =       5, irest   =       1, ntrx    =       1

Nature and format of output:
     ntxo    =       2, ntpr    =    5000, ntrx    =       1, ntwr    =   25000
     iwrap   =       1, ntwx    =   25000, ntwv    =       0, ntwe    =       0
     ioutfm  =       1, ntwprt  =       0, idecomp =       0, rbornstat=      0

Potential function:
     ntf     =       2, ntb     =       1, igb     =       0, nsnb    =      25
     ipol    =       0, gbsa    =       0, iesp    =       0
     dielc   =   1.00000, cut     =   8.00000, intdiel =   1.00000

Frozen or restrained atoms:
     ibelly  =       0, ntr     =       0

Molecular dynamics:
     nstlim  =   1000000, nscm    =      1000, nrespa  =         1
     t       =   0.00000, dt      =   0.00400, vlimit  =  -1.00000

Langevin dynamics temperature regulation:
     ig      =  787210
     temp0   = 310.00000, tempi   =   0.00000, gamma_ln=   0.01000

SHAKE:
     ntc     =       2, jfastw  =       0
     tol     =   0.00001

NMR refinement options:
     iscale  =       0, noeskp  =       1, ipnlty  =       1, mxsub   =       1
     scalm   = 100.00000, pencut  =   0.10000, tausw   =   0.10000

Extra-points options:
     frameon =       1, chngmask=       1

Ewald parameters:
     verbose =       0, ew_type =       0, nbflag  =       1, use_pme =       1
     vdwmeth =       1, eedmeth =       1, netfrc  =       1
     Box X =  113.615   Box Y =  113.615   Box Z =  113.615
     Alpha =  109.471   Beta  =  109.471   Gamma =  109.471
     NFFT1 =  120       NFFT2 =  120       NFFT3 =  120
     Cutoff=    8.000   Tol   =0.100E-04
     Ewald Coefficient =  0.34864
     Interpolation order =    4

--------------------------------------------------------------------------------
   3.  ATOMIC COORDINATES AND VELOCITIES
--------------------------------------------------------------------------------

default_name
 begin time read from input coords =    50.000 ps

           Begin reading energy term weight changes/NMR restraints
 WEIGHT CHANGES:
                         ** No weight changes given **

 RESTRAINTS:
 Requested file redirections:
  DISANG    = zinc.rst
  LISTOUT   = POUT
 Restraints will be read from file: zinc.rst
Here are comments from the DISANG input file:

                       Number of restraints read =     5

                  Done reading weight changes/NMR restraints

 Number of triangulated 3-point waters found:    35913

     Sum of charges from parm topology file =   0.00119677
     Forcing neutrality...

--------------------------------------------------------------------------------
   4.  RESULTS
 NSTEP =     5000   TIME(PS) =      70.000  TEMP(K) =   287.93  PRESS =     0.0
 Etot   =   -393393.3213  EKtot   =     68486.8906  EPtot      =   -461880.2119
 BOND   =      1984.2805  ANGLE   =      5100.1382  DIHED      =      3573.6743
 UB     =         0.0000  IMP     =         0.0000  CMAP       =       459.0947
 1-4 NB =      2155.7516  1-4 EEL =     24819.9944  VDWAALS    =     58557.9197
 EELEC  =   -558573.8353  EHBOND  =         0.0000  RESTRAINT  =        42.7698
 EAMBER (non-restraint)  =   -461922.9817
 ------------------------------------------------------------------------------

      A V E R A G E S   O V E R     200 S T E P S

 NSTEP =  1000000   TIME(PS) =    4050.000  TEMP(K) =   309.77  PRESS =     0.0
 Etot   =   -377585.3099  EKtot   =     73682.7407  EPtot      =   -451268.0505
 BOND   =      2025.8239  ANGLE   =      5258.6396  DIHED      =      3495.0610
 UB     =         0.0000  IMP     =         0.0000  CMAP       =       434.7018
 1-4 NB =      2156.3144  1-4 EEL =     24692.0182  VDWAALS    =     55254.0605
 EELEC  =   -544616.4416  EHBOND  =         0.0000  RESTRAINT  =        31.7715
 EAMBER (non-restraint)  =   -451299.8220
 ------------------------------------------------------------------------------

      R M S  F L U C T U A T I O N S

 NSTEP =  1000000   TIME(PS) =    4050.000  TEMP(K) =     3.37  PRESS =     0.0
 Etot   =      2315.3616  EKtot   =       801.1342  EPtot      =      1542.2215
 BOND   =        44.3703  ANGLE   =        67.9804  DIHED      =        39.7465
 UB     =         0.0000  IMP     =         0.0000  CMAP       =        13.2864
 1-4 NB =        18.3065  1-4 EEL =        68.4811  VDWAALS    =       623.9976
 EELEC  =      2068.3710  EHBOND  =         0.0000  RESTRAINT  =         4.1835
 EAMBER (non-restraint)  =      1538.0380
 ------------------------------------------------------------------------------
