-------------------------------------------------------
          Amber 20 PMEMD                              2020
          -------------------------------------------------------

  [-O]verwriting output

File Assignments:

 Here is the input file:

 MD simualation
&cntrl
 imin=0,           ! Perform MD
 nstlim=50000      ! Number of MD steps
 ntb=2,            ! 2=Constant Pressure, default when ntp>0. Unit cell size ch
 igb=0,            ! 1,2,5,8=implicit solvent
 ntc=1,            ! 2=SHAKE on for bonds with hydrogen (SHAKE restricts bond s
 dt=0.001,         ! Timestep (ps)
 ntp=1,            ! 1=Isotropic pressure scaling (0=no scaling) (should be 1 o
 barostat=2        ! 1=Berendsen barostat, 2=montecarlo thermostat, p339 amber
 taup=0.5          ! Pressure relaxtion time (ps)
 ntf=1,            ! 2=No force evaluation for bonds with hydrogen (1=complete
 ntt=3,            ! Langevin thermostat (0=constant total energy, p337 manual)
 gamma_ln=2.0      ! Collision Frequency for thermostat
 ig=-1,            ! Random seed for thermostat
 temp0=310         ! Simulation temperature (K)
 ntwx= 10000,        ! Write to trajectory file every ntwx steps
 ntpr= 1000,        ! Print to mdout every ntpr steps
 ntwr= 10000,        ! Write a restart file every ntwr steps
 cut=8,          ! Nonbonded cutoff in Angstroms
 ntr=1,            ! Turn on restraints
 restraintmask=":1-595 & !@H=", ! atoms to be restrained (all in BRD4 but not H
 restraint_wt=1, ! force constant for restraint
 ntxo=2,           ! 1=Write coordinate file in ASCII format, 2=NetCDF
 ioutfm=1,         ! 0=Write trajectory file in ASCII format, 1=NetCDF
 nmropt=0,         !
/
&wt type='END' /
DISANG=output.rst
LISTOUT=POUT

Note: ig = -1. Setting random seed to   520495 based on wallclock time in
      microseconds.

--------------------------------------------------------------------------------
   1.  RESOURCE   USE:
--------------------------------------------------------------------------------

 getting box info from netcdf restart file
 NATOM  =  153225 NTYPES =      30 NBONH =  112557 MBONA  =   40767
 NTHETH =   10953 MTHETA =    6572 NPHIH =   21920 MPHIA  =   21067
 NHPARM =       0 NPARM  =       0 NNB   =  304420 NRES   =   36514
 NBONA  =   40767 NTHETA =    6572 NPHIA =   21067 NUMBND =      94
 NUMANG =     220 NPTRA  =     222 NATYP =      51 NPHB   =       1
 IFBOX  =       2 NMXRS  =      50 IFCAP =       0 NEXTRA =   35919
 NCOPY  =       0

     BOX TYPE: TRUNCATED OCTAHEDRON

--------------------------------------------------------------------------------
   2.  CONTROL  DATA  FOR  THE  RUN
--------------------------------------------------------------------------------

default_name

General flags:
     imin    =       0, nmropt  =       0

Nature and format of input:
     ntx     =       1, irest   =       0, ntrx    =       1

Nature and format of output:
     ntxo    =       2, ntpr    =    1000, ntrx    =       1, ntwr    =   10000
     iwrap   =       0, ntwx    =   10000, ntwv    =       0, ntwe    =       0
     ioutfm  =       1, ntwprt  =       0, idecomp =       0, rbornstat=      0

Potential function:
     ntf     =       1, ntb     =       2, igb     =       0, nsnb    =      25
     ipol    =       0, gbsa    =       0, iesp    =       0
     dielc   =   1.00000, cut     =   8.00000, intdiel =   1.00000

Frozen or restrained atoms:
     ibelly  =       0, ntr     =       1
     restraint_wt =   1.00000

Molecular dynamics:
     nstlim  =     50000, nscm    =         0, nrespa  =         1
     t       =   0.00000, dt      =   0.00100, vlimit  =  -1.00000

Langevin dynamics temperature regulation:
     ig      =  520495
     temp0   = 310.00000, tempi   =   0.00000, gamma_ln=   2.00000

Pressure regulation:
     ntp     =       1
     pres0   =   1.00000, comp    =  44.60000, taup    =   0.50000
     Monte-Carlo Barostat:
     mcbarint  =     100

Extra-points options:
     frameon =       1, chngmask=       1

Ewald parameters:
     verbose =       0, ew_type =       0, nbflag  =       1, use_pme =       1
     vdwmeth =       1, eedmeth =       1, netfrc  =       1
     Box X =  113.987   Box Y =  113.987   Box Z =  113.987
     Alpha =  109.471   Beta  =  109.471   Gamma =  109.471
     NFFT1 =  120       NFFT2 =  120       NFFT3 =  120
     Cutoff=    8.000   Tol   =0.100E-04
     Ewald Coefficient =  0.34864
     Interpolation order =    4

    LOADING THE CONSTRAINED ATOMS AS GROUPS

   5.  REFERENCE ATOM COORDINATES

  default_name
     Mask :1-595 & !@H=; matches  4749 atoms

--------------------------------------------------------------------------------
   3.  ATOMIC COORDINATES AND VELOCITIES
--------------------------------------------------------------------------------

default_name
 begin time read from input coords =    50.000 ps

 Number of triangulated 3-point waters found:    35919

     Sum of charges from parm topology file =   0.00119680
     Forcing neutrality...

--------------------------------------------------------------------------------
   4.  RESULTS
 NSTEP =        0   TIME(PS) =       0.000  TEMP(K) =     0.00  PRESS =     0.0
 Etot   =   -553661.8838  EKtot   =         0.0000  EPtot      =   -553661.8838
 BOND   =    164264.4970  ANGLE   =      4829.1409  DIHED      =      3479.7368
 UB     =         0.0000  IMP     =         0.0000  CMAP       =       546.5412
 1-4 NB =      2222.7492  1-4 EEL =     24939.8636  VDWAALS    =    148114.4509
 EELEC  =   -902058.8633  EHBOND  =         0.0000  RESTRAINT  =         0.0000
 EKCMT  =         0.0000  VIRIAL  =         0.0000  VOLUME     =   1140113.7821
                                                    Density    =         1.0413
 ------------------------------------------------------------------------------

      A V E R A G E S   O V E R      50 S T E P S

 NSTEP =    50000   TIME(PS) =      50.000  TEMP(K) =   309.59  PRESS =     0.0
 Etot   =   -447335.9871  EKtot   =    108251.8822  EPtot      =   -555587.8692
 BOND   =    165382.0036  ANGLE   =      4914.1004  DIHED      =      3541.0893
 UB     =         0.0000  IMP     =         0.0000  CMAP       =       521.1116
 1-4 NB =      2175.5773  1-4 EEL =     24829.2425  VDWAALS    =    149970.0456
 EELEC  =   -907592.7613  EHBOND  =         0.0000  RESTRAINT  =       671.7219
 EAMBER (non-restraint)  =   -556259.5912
 EKCMT  =         0.0000  VIRIAL  =         0.0000  VOLUME     =   1136057.4518
                                                    Density    =         1.0450
 ------------------------------------------------------------------------------

      R M S  F L U C T U A T I O N S

 NSTEP =    50000   TIME(PS) =      50.000  TEMP(K) =     3.10  PRESS =     0.0
 Etot   =      2438.6660  EKtot   =      1083.1314  EPtot      =      1430.1642
 BOND   =       705.1820  ANGLE   =        64.8678  DIHED      =        28.2412
 UB     =         0.0000  IMP     =         0.0000  CMAP       =         8.2939
 1-4 NB =        21.6919  1-4 EEL =        57.8544  VDWAALS    =       562.6455
 EELEC  =      1784.6951  EHBOND  =         0.0000  RESTRAINT  =        36.0056
 EAMBER (non-restraint)  =      1394.1586
 EKCMT  =         0.0000  VIRIAL  =         0.0000  VOLUME     =       777.0029
                                                    Density    =         0.0007
 ------------------------------------------------------------------------------
