-------------------------------------------------------
          Amber 20 PMEMD                              2020
          -------------------------------------------------------

  [-O]verwriting output

File Assignments:

 Here is the input file:

 MD simualation
&cntrl
 imin=0,           ! Perform MD
 nstlim=50000      ! Number of MD steps
 ntb=2,            ! 2=Constant Pressure, default when ntp>0. Unit cell size ch
 igb=0,            ! 1,2,5,8=implicit solvent
 ntc=1,            ! 2=SHAKE on for bonds with hydrogen (SHAKE restricts bond s
 dt=0.001,         ! Timestep (ps)
 ntp=1,            ! 1=Isotropic pressure scaling (0=no scaling) (should be 1 o
 barostat=2        ! 1=Berendsen barostat, 2=montecarlo thermostat, p339 amber
 taup=0.5          ! Pressure relaxtion time (ps)
 ntf=1,            ! 2=No force evaluation for bonds with hydrogen (1=complete
 ntt=3,            ! Langevin thermostat (0=constant total energy, p337 manual)
 gamma_ln=2.0      ! Collision Frequency for thermostat
 ig=-1,            ! Random seed for thermostat
 temp0=310         ! Simulation temperature (K)
 ntwx= 10000,        ! Write to trajectory file every ntwx steps
 ntpr= 1000,        ! Print to mdout every ntpr steps
 ntwr= 10000,        ! Write a restart file every ntwr steps
 cut=8,          ! Nonbonded cutoff in Angstroms
 ntr=1,            ! Turn on restraints
 restraintmask=":1-594 & !@H=", ! atoms to be restrained (all in BRD4 but not H
 restraint_wt=1, ! force constant for restraint
 ntxo=2,           ! 1=Write coordinate file in ASCII format, 2=NetCDF
 ioutfm=1,         ! 0=Write trajectory file in ASCII format, 1=NetCDF
 nmropt=0,         !
/
&wt type='END' /
DISANG=output.rst
LISTOUT=POUT

Note: ig = -1. Setting random seed to   875264 based on wallclock time in
      microseconds.

--------------------------------------------------------------------------------
   1.  RESOURCE   USE:
--------------------------------------------------------------------------------

 getting box info from netcdf restart file
 NATOM  =  153163 NTYPES =      19 NBONH =  112530 MBONA  =   40729
 NTHETH =   10912 MTHETA =    6520 NPHIH =   21834 MPHIA  =   20975
 NHPARM =       0 NPARM  =       0 NNB   =  304119 NRES   =   36510
 NBONA  =   40729 NTHETA =    6520 NPHIA =   20975 NUMBND =      78
 NUMANG =     184 NPTRA  =     202 NATYP =      39 NPHB   =       1
 IFBOX  =       2 NMXRS  =      24 IFCAP =       0 NEXTRA =   35916
 NCOPY  =       0

     BOX TYPE: TRUNCATED OCTAHEDRON

--------------------------------------------------------------------------------
   2.  CONTROL  DATA  FOR  THE  RUN
--------------------------------------------------------------------------------

default_name

General flags:
     imin    =       0, nmropt  =       0

Nature and format of input:
     ntx     =       1, irest   =       0, ntrx    =       1

Nature and format of output:
     ntxo    =       2, ntpr    =    1000, ntrx    =       1, ntwr    =   10000
     iwrap   =       0, ntwx    =   10000, ntwv    =       0, ntwe    =       0
     ioutfm  =       1, ntwprt  =       0, idecomp =       0, rbornstat=      0

Potential function:
     ntf     =       1, ntb     =       2, igb     =       0, nsnb    =      25
     ipol    =       0, gbsa    =       0, iesp    =       0
     dielc   =   1.00000, cut     =   8.00000, intdiel =   1.00000

Frozen or restrained atoms:
     ibelly  =       0, ntr     =       1
     restraint_wt =   1.00000

Molecular dynamics:
     nstlim  =     50000, nscm    =         0, nrespa  =         1
     t       =   0.00000, dt      =   0.00100, vlimit  =  -1.00000

Langevin dynamics temperature regulation:
     ig      =  875264
     temp0   = 310.00000, tempi   =   0.00000, gamma_ln=   2.00000

Pressure regulation:
     ntp     =       1
     pres0   =   1.00000, comp    =  44.60000, taup    =   0.50000
     Monte-Carlo Barostat:
     mcbarint  =     100

Extra-points options:
     frameon =       1, chngmask=       1

Ewald parameters:
     verbose =       0, ew_type =       0, nbflag  =       1, use_pme =       1
     vdwmeth =       1, eedmeth =       1, netfrc  =       1
     Box X =  113.866   Box Y =  113.866   Box Z =  113.866
     Alpha =  109.471   Beta  =  109.471   Gamma =  109.471
     NFFT1 =  120       NFFT2 =  120       NFFT3 =  120
     Cutoff=    8.000   Tol   =0.100E-04
     Ewald Coefficient =  0.34864
     Interpolation order =    4

    LOADING THE CONSTRAINED ATOMS AS GROUPS

   5.  REFERENCE ATOM COORDINATES

  default_name
     Mask :1-594 & !@H=; matches  4717 atoms

--------------------------------------------------------------------------------
   3.  ATOMIC COORDINATES AND VELOCITIES
--------------------------------------------------------------------------------

default_name
 begin time read from input coords =    50.000 ps

 Number of triangulated 3-point waters found:    35916

     Sum of charges from parm topology file =   0.00019680
     Forcing neutrality...

--------------------------------------------------------------------------------
   4.  RESULTS
 NSTEP =        0   TIME(PS) =       0.000  TEMP(K) =     0.00  PRESS =     0.0
 Etot   =   -554083.3424  EKtot   =         0.0000  EPtot      =   -554083.3424
 BOND   =    164356.2362  ANGLE   =      4764.5467  DIHED      =      3487.3497
 UB     =         0.0000  IMP     =         0.0000  CMAP       =       555.6130
 1-4 NB =      2216.2171  1-4 EEL =     24834.5508  VDWAALS    =    148384.5456
 EELEC  =   -902682.4016  EHBOND  =         0.0000  RESTRAINT  =         0.0000
 EKCMT  =         0.0000  VIRIAL  =         0.0000  VOLUME     =   1136461.8383
                                                    Density    =         1.0439
 ------------------------------------------------------------------------------

      A V E R A G E S   O V E R      50 S T E P S

 NSTEP =    50000   TIME(PS) =      50.000  TEMP(K) =   309.53  PRESS =     0.0
 Etot   =   -447652.4892  EKtot   =    108175.5102  EPtot      =   -555827.9993
 BOND   =    165418.8733  ANGLE   =      4899.3555  DIHED      =      3510.4007
 UB     =         0.0000  IMP     =         0.0000  CMAP       =       519.4333
 1-4 NB =      2154.0472  1-4 EEL =     24761.8907  VDWAALS    =    150293.1913
 EELEC  =   -908044.3751  EHBOND  =         0.0000  RESTRAINT  =       659.1838
 EAMBER (non-restraint)  =   -556487.1831
 EKCMT  =         0.0000  VIRIAL  =         0.0000  VOLUME     =   1133050.2480
                                                    Density    =         1.0471
 ------------------------------------------------------------------------------

      R M S  F L U C T U A T I O N S

 NSTEP =    50000   TIME(PS) =      50.000  TEMP(K) =     3.19  PRESS =     0.0
 Etot   =      2515.0966  EKtot   =      1114.0088  EPtot      =      1472.1748
 BOND   =       468.6962  ANGLE   =        57.3026  DIHED      =        27.1039
 UB     =         0.0000  IMP     =         0.0000  CMAP       =         7.9505
 1-4 NB =        18.4633  1-4 EEL =        43.4128  VDWAALS    =       710.5569
 EELEC  =      2055.8419  EHBOND  =         0.0000  RESTRAINT  =        32.8279
 EAMBER (non-restraint)  =      1439.3469
 EKCMT  =         0.0000  VIRIAL  =         0.0000  VOLUME     =       867.2934
                                                    Density    =         0.0008
 ------------------------------------------------------------------------------
