-------------------------------------------------------
          Amber 20 PMEMD                              2020
          -------------------------------------------------------

  [-O]verwriting output

File Assignments:

 Here is the input file:

 MD simualation
&cntrl
 imin=0,           ! Perform MD
 nstlim=50000      ! Number of MD steps
 ntb=2,            ! 2=Constant Pressure, default when ntp>0. Unit cell size ch
 igb=0,            ! 1,2,5,8=implicit solvent
 ntc=1,            ! 2=SHAKE on for bonds with hydrogen (SHAKE restricts bond s
 dt=0.001,         ! Timestep (ps)
 ntp=1,            ! 1=Isotropic pressure scaling (0=no scaling) (should be 1 o
 barostat=2        ! 1=Berendsen barostat, 2=montecarlo thermostat, p339 amber
 taup=0.5          ! Pressure relaxtion time (ps)
 ntf=1,            ! 2=No force evaluation for bonds with hydrogen (1=complete
 ntt=3,            ! Langevin thermostat (0=constant total energy, p337 manual)
 gamma_ln=2.0      ! Collision Frequency for thermostat
 ig=-1,            ! Random seed for thermostat
 temp0=310         ! Simulation temperature (K)
 ntwx= 10000,        ! Write to trajectory file every ntwx steps
 ntpr= 1000,        ! Print to mdout every ntpr steps
 ntwr= 10000,        ! Write a restart file every ntwr steps
 cut=8,          ! Nonbonded cutoff in Angstroms
 ntr=1,            ! Turn on restraints
 restraintmask=":1-595 & !@H=", ! atoms to be restrained (all in BRD4 but not H
 restraint_wt=1, ! force constant for restraint
 ntxo=2,           ! 1=Write coordinate file in ASCII format, 2=NetCDF
 ioutfm=1,         ! 0=Write trajectory file in ASCII format, 1=NetCDF
 nmropt=1,         !
/
&wt type='END' /
DISANG=zinc.rst
LISTOUT=POUT

Note: ig = -1. Setting random seed to   687202 based on wallclock time in
      microseconds.

--------------------------------------------------------------------------------
   1.  RESOURCE   USE:
--------------------------------------------------------------------------------

 getting box info from netcdf restart file
 NATOM  =  166676 NTYPES =      32 NBONH =  122637 MBONA  =   44141
 NTHETH =   10978 MTHETA =    6595 NPHIH =   21968 MPHIA  =   21108
 NHPARM =       0 NPARM  =       0 NNB   =  328052 NRES   =   39870
 NBONA  =   44141 NTHETA =    6595 NPHIA =   21108 NUMBND =     104
 NUMANG =     238 NPTRA  =     234 NATYP =      57 NPHB   =       1
 IFBOX  =       2 NMXRS  =      77 IFCAP =       0 NEXTRA =   39275
 NCOPY  =       0

     BOX TYPE: TRUNCATED OCTAHEDRON

--------------------------------------------------------------------------------
   2.  CONTROL  DATA  FOR  THE  RUN
--------------------------------------------------------------------------------

default_name

General flags:
     imin    =       0, nmropt  =       1

Nature and format of input:
     ntx     =       1, irest   =       0, ntrx    =       1

Nature and format of output:
     ntxo    =       2, ntpr    =    1000, ntrx    =       1, ntwr    =   10000
     iwrap   =       0, ntwx    =   10000, ntwv    =       0, ntwe    =       0
     ioutfm  =       1, ntwprt  =       0, idecomp =       0, rbornstat=      0

Potential function:
     ntf     =       1, ntb     =       2, igb     =       0, nsnb    =      25
     ipol    =       0, gbsa    =       0, iesp    =       0
     dielc   =   1.00000, cut     =   8.00000, intdiel =   1.00000

Frozen or restrained atoms:
     ibelly  =       0, ntr     =       1
     restraint_wt =   1.00000

Molecular dynamics:
     nstlim  =     50000, nscm    =         0, nrespa  =         1
     t       =   0.00000, dt      =   0.00100, vlimit  =  -1.00000

Langevin dynamics temperature regulation:
     ig      =  687202
     temp0   = 310.00000, tempi   =   0.00000, gamma_ln=   2.00000

Pressure regulation:
     ntp     =       1
     pres0   =   1.00000, comp    =  44.60000, taup    =   0.50000
     Monte-Carlo Barostat:
     mcbarint  =     100

NMR refinement options:
     iscale  =       0, noeskp  =       1, ipnlty  =       1, mxsub   =       1
     scalm   = 100.00000, pencut  =   0.10000, tausw   =   0.10000

Extra-points options:
     frameon =       1, chngmask=       1

Ewald parameters:
     verbose =       0, ew_type =       0, nbflag  =       1, use_pme =       1
     vdwmeth =       1, eedmeth =       1, netfrc  =       1
     Box X =  117.066   Box Y =  117.066   Box Z =  117.066
     Alpha =  109.471   Beta  =  109.471   Gamma =  109.471
     NFFT1 =  128       NFFT2 =  128       NFFT3 =  128
     Cutoff=    8.000   Tol   =0.100E-04
     Ewald Coefficient =  0.34864
     Interpolation order =    4

    LOADING THE CONSTRAINED ATOMS AS GROUPS

   5.  REFERENCE ATOM COORDINATES

  default_name
     Mask :1-595 & !@H=; matches  4764 atoms

--------------------------------------------------------------------------------
   3.  ATOMIC COORDINATES AND VELOCITIES
--------------------------------------------------------------------------------

default_name
 begin time read from input coords =    50.000 ps

           Begin reading energy term weight changes/NMR restraints
 WEIGHT CHANGES:
                         ** No weight changes given **

 RESTRAINTS:
 Requested file redirections:
  DISANG    = zinc.rst
  LISTOUT   = POUT
 Restraints will be read from file: zinc.rst
Here are comments from the DISANG input file:

                       Number of restraints read =     4

                  Done reading weight changes/NMR restraints

 Number of triangulated 3-point waters found:    39275

     Sum of charges from parm topology file =  -0.00078476
     Forcing neutrality...

--------------------------------------------------------------------------------
   4.  RESULTS
 NSTEP =        0   TIME(PS) =       0.000  TEMP(K) =     0.00  PRESS =     0.0
 Etot   =   -605509.0551  EKtot   =         0.0000  EPtot      =   -605509.0551
 BOND   =    179538.8379  ANGLE   =      4909.1702  DIHED      =      3386.3283
 UB     =         0.0000  IMP     =         0.0000  CMAP       =       449.6139
 1-4 NB =      2135.7496  1-4 EEL =     24736.9166  VDWAALS    =    161997.0613
 EELEC  =   -982676.3523  EHBOND  =         0.0000  RESTRAINT  =        13.6194
 EAMBER (non-restraint)  =   -605522.6745
 EKCMT  =         0.0000  VIRIAL  =         0.0000  VOLUME     =   1235003.1522
                                                    Density    =         1.0428
 ------------------------------------------------------------------------------

      A V E R A G E S   O V E R      50 S T E P S

 NSTEP =    50000   TIME(PS) =      50.000  TEMP(K) =   309.63  PRESS =     0.0
 Etot   =   -489538.0412  EKtot   =    117584.2278  EPtot      =   -607122.2690
 BOND   =    180666.3494  ANGLE   =      4962.9562  DIHED      =      3465.4330
 UB     =         0.0000  IMP     =         0.0000  CMAP       =       449.9975
 1-4 NB =      2140.5879  1-4 EEL =     24794.1608  VDWAALS    =    164536.4169
 EELEC  =   -988677.6647  EHBOND  =         0.0000  RESTRAINT  =       539.4940
 EAMBER (non-restraint)  =   -607661.7630
 EKCMT  =         0.0000  VIRIAL  =         0.0000  VOLUME     =   1231198.0391
                                                    Density    =         1.0461
 ------------------------------------------------------------------------------

      R M S  F L U C T U A T I O N S

 NSTEP =    50000   TIME(PS) =      50.000  TEMP(K) =     3.25  PRESS =     0.0
 Etot   =      2728.1115  EKtot   =      1232.7091  EPtot      =      1609.3757
 BOND   =       590.7307  ANGLE   =        61.3449  DIHED      =        31.1266
 UB     =         0.0000  IMP     =         0.0000  CMAP       =         8.4406
 1-4 NB =        17.8290  1-4 EEL =        45.6193  VDWAALS    =       719.3761
 EELEC  =      2348.2387  EHBOND  =         0.0000  RESTRAINT  =        18.9850
 EAMBER (non-restraint)  =      1590.3907
 EKCMT  =         0.0000  VIRIAL  =         0.0000  VOLUME     =       899.9619
                                                    Density    =         0.0008
 ------------------------------------------------------------------------------
