-------------------------------------------------------
          Amber 20 PMEMD                              2020
          -------------------------------------------------------

  [-O]verwriting output

File Assignments:

 Here is the input file:

 MD simualation
&cntrl
 imin=0,           ! Perform MD
 nstlim=50000      ! Number of MD steps
 ntb=2,            ! 2=Constant Pressure, default when ntp>0. Unit cell size ch
 igb=0,            ! 1,2,5,8=implicit solvent
 ntc=1,            ! 2=SHAKE on for bonds with hydrogen (SHAKE restricts bond s
 dt=0.001,         ! Timestep (ps)
 ntp=1,            ! 1=Isotropic pressure scaling (0=no scaling) (should be 1 o
 barostat=2        ! 1=Berendsen barostat, 2=montecarlo thermostat, p339 amber
 taup=0.5          ! Pressure relaxtion time (ps)
 ntf=1,            ! 2=No force evaluation for bonds with hydrogen (1=complete
 ntt=3,            ! Langevin thermostat (0=constant total energy, p337 manual)
 gamma_ln=2.0      ! Collision Frequency for thermostat
 ig=-1,            ! Random seed for thermostat
 temp0=310         ! Simulation temperature (K)
 ntwx= 10000,        ! Write to trajectory file every ntwx steps
 ntpr= 1000,        ! Print to mdout every ntpr steps
 ntwr= 10000,        ! Write a restart file every ntwr steps
 cut=8,          ! Nonbonded cutoff in Angstroms
 ntr=1,            ! Turn on restraints
 restraintmask=":1-595 & !@H=", ! atoms to be restrained (all in BRD4 but not H
 restraint_wt=1, ! force constant for restraint
 ntxo=2,           ! 1=Write coordinate file in ASCII format, 2=NetCDF
 ioutfm=1,         ! 0=Write trajectory file in ASCII format, 1=NetCDF
 nmropt=1,         !
/
&wt type='END' /
DISANG=zinc.rst
LISTOUT=POUT

Note: ig = -1. Setting random seed to   584980 based on wallclock time in
      microseconds.

--------------------------------------------------------------------------------
   1.  RESOURCE   USE:
--------------------------------------------------------------------------------

 getting box info from netcdf restart file
 NATOM  =  152909 NTYPES =      30 NBONH =  112320 MBONA  =   40688
 NTHETH =   10953 MTHETA =    6572 NPHIH =   21920 MPHIA  =   21067
 NHPARM =       0 NPARM  =       0 NNB   =  303867 NRES   =   36435
 NBONA  =   40688 NTHETA =    6572 NPHIA =   21067 NUMBND =      94
 NUMANG =     220 NPTRA  =     222 NATYP =      51 NPHB   =       1
 IFBOX  =       2 NMXRS  =      50 IFCAP =       0 NEXTRA =   35840
 NCOPY  =       0

     BOX TYPE: TRUNCATED OCTAHEDRON

--------------------------------------------------------------------------------
   2.  CONTROL  DATA  FOR  THE  RUN
--------------------------------------------------------------------------------

default_name

General flags:
     imin    =       0, nmropt  =       1

Nature and format of input:
     ntx     =       1, irest   =       0, ntrx    =       1

Nature and format of output:
     ntxo    =       2, ntpr    =    1000, ntrx    =       1, ntwr    =   10000
     iwrap   =       0, ntwx    =   10000, ntwv    =       0, ntwe    =       0
     ioutfm  =       1, ntwprt  =       0, idecomp =       0, rbornstat=      0

Potential function:
     ntf     =       1, ntb     =       2, igb     =       0, nsnb    =      25
     ipol    =       0, gbsa    =       0, iesp    =       0
     dielc   =   1.00000, cut     =   8.00000, intdiel =   1.00000

Frozen or restrained atoms:
     ibelly  =       0, ntr     =       1
     restraint_wt =   1.00000

Molecular dynamics:
     nstlim  =     50000, nscm    =         0, nrespa  =         1
     t       =   0.00000, dt      =   0.00100, vlimit  =  -1.00000

Langevin dynamics temperature regulation:
     ig      =  584980
     temp0   = 310.00000, tempi   =   0.00000, gamma_ln=   2.00000

Pressure regulation:
     ntp     =       1
     pres0   =   1.00000, comp    =  44.60000, taup    =   0.50000
     Monte-Carlo Barostat:
     mcbarint  =     100

NMR refinement options:
     iscale  =       0, noeskp  =       1, ipnlty  =       1, mxsub   =       1
     scalm   = 100.00000, pencut  =   0.10000, tausw   =   0.10000

Extra-points options:
     frameon =       1, chngmask=       1

Ewald parameters:
     verbose =       0, ew_type =       0, nbflag  =       1, use_pme =       1
     vdwmeth =       1, eedmeth =       1, netfrc  =       1
     Box X =  113.796   Box Y =  113.796   Box Z =  113.796
     Alpha =  109.471   Beta  =  109.471   Gamma =  109.471
     NFFT1 =  120       NFFT2 =  120       NFFT3 =  120
     Cutoff=    8.000   Tol   =0.100E-04
     Ewald Coefficient =  0.34864
     Interpolation order =    4

    LOADING THE CONSTRAINED ATOMS AS GROUPS

   5.  REFERENCE ATOM COORDINATES

  default_name
     Mask :1-595 & !@H=; matches  4749 atoms

--------------------------------------------------------------------------------
   3.  ATOMIC COORDINATES AND VELOCITIES
--------------------------------------------------------------------------------

default_name
 begin time read from input coords =    50.000 ps

           Begin reading energy term weight changes/NMR restraints
 WEIGHT CHANGES:
                         ** No weight changes given **

 RESTRAINTS:
 Requested file redirections:
  DISANG    = zinc.rst
  LISTOUT   = POUT
 Restraints will be read from file: zinc.rst
Here are comments from the DISANG input file:

                       Number of restraints read =     4

                  Done reading weight changes/NMR restraints

 Number of triangulated 3-point waters found:    35840

     Sum of charges from parm topology file =   0.00119637
     Forcing neutrality...

--------------------------------------------------------------------------------
   4.  RESULTS
 NSTEP =        0   TIME(PS) =       0.000  TEMP(K) =     0.00  PRESS =     0.0
 Etot   =   -553308.4858  EKtot   =         0.0000  EPtot      =   -553308.4858
 BOND   =    164600.5322  ANGLE   =      4924.5825  DIHED      =      3413.9936
 UB     =         0.0000  IMP     =         0.0000  CMAP       =       417.8789
 1-4 NB =      2136.9724  1-4 EEL =     24743.3356  VDWAALS    =    148602.8419
 EELEC  =   -902161.2430  EHBOND  =         0.0000  RESTRAINT  =        12.6201
 EAMBER (non-restraint)  =   -553321.1059
 EKCMT  =         0.0000  VIRIAL  =         0.0000  VOLUME     =   1134392.8861
                                                    Density    =         1.0445
 ------------------------------------------------------------------------------

      A V E R A G E S   O V E R      50 S T E P S

 NSTEP =    50000   TIME(PS) =      50.000  TEMP(K) =   309.74  PRESS =     0.0
 Etot   =   -446996.7852  EKtot   =    108087.3958  EPtot      =   -555084.1810
 BOND   =    165115.3902  ANGLE   =      4951.6070  DIHED      =      3427.5425
 UB     =         0.0000  IMP     =         0.0000  CMAP       =       429.9250
 1-4 NB =      2145.2179  1-4 EEL =     24698.8726  VDWAALS    =    149307.0863
 EELEC  =   -905710.1813  EHBOND  =         0.0000  RESTRAINT  =       550.3588
 EAMBER (non-restraint)  =   -555634.5398
 EKCMT  =         0.0000  VIRIAL  =         0.0000  VOLUME     =   1132444.2249
                                                    Density    =         1.0463
 ------------------------------------------------------------------------------

      R M S  F L U C T U A T I O N S

 NSTEP =    50000   TIME(PS) =      50.000  TEMP(K) =     3.23  PRESS =     0.0
 Etot   =      2679.1196  EKtot   =      1127.4425  EPtot      =      1653.8553
 BOND   =       473.0150  ANGLE   =        59.9196  DIHED      =        28.6955
 UB     =         0.0000  IMP     =         0.0000  CMAP       =        10.3193
 1-4 NB =        18.2088  1-4 EEL =        50.5640  VDWAALS    =       938.9335
 EELEC  =      2617.9686  EHBOND  =         0.0000  RESTRAINT  =        19.7800
 EAMBER (non-restraint)  =      1634.0752
 EKCMT  =         0.0000  VIRIAL  =         0.0000  VOLUME     =      1500.2767
                                                    Density    =         0.0014
 ------------------------------------------------------------------------------
