-------------------------------------------------------
          Amber 20 PMEMD                              2020
          -------------------------------------------------------

  [-O]verwriting output

File Assignments:

 Here is the input file:

 MD simualation
&cntrl
 imin=0,           ! Perform MD
 nstlim=50000      ! Number of MD steps
 ntb=2,            ! 2=Constant Pressure, default when ntp>0. Unit cell size ch
 igb=0,            ! 1,2,5,8=implicit solvent
 ntc=1,            ! 2=SHAKE on for bonds with hydrogen (SHAKE restricts bond s
 dt=0.001,         ! Timestep (ps)
 ntp=1,            ! 1=Isotropic pressure scaling (0=no scaling) (should be 1 o
 barostat=2        ! 1=Berendsen barostat, 2=montecarlo thermostat, p339 amber
 taup=0.5          ! Pressure relaxtion time (ps)
 ntf=1,            ! 2=No force evaluation for bonds with hydrogen (1=complete
 ntt=3,            ! Langevin thermostat (0=constant total energy, p337 manual)
 gamma_ln=2.0      ! Collision Frequency for thermostat
 ig=-1,            ! Random seed for thermostat
 temp0=310         ! Simulation temperature (K)
 ntwx= 10000,        ! Write to trajectory file every ntwx steps
 ntpr= 1000,        ! Print to mdout every ntpr steps
 ntwr= 10000,        ! Write a restart file every ntwr steps
 cut=8,          ! Nonbonded cutoff in Angstroms
 ntr=1,            ! Turn on restraints
 restraintmask=":1-595 & !@H=", ! atoms to be restrained (all in residue 1-253
 restraint_wt=5.0, ! force constant for restraint
 ntxo=2,           ! 1=Write coordinate file in ASCII format, 2=NetCDF
 ioutfm=1,         ! 0=Write trajectory file in ASCII format, 1=NetCDF
 nmropt=0,         !
/

Note: ig = -1. Setting random seed to   110058 based on wallclock time in
      microseconds.

--------------------------------------------------------------------------------
   1.  RESOURCE   USE:
--------------------------------------------------------------------------------

 getting box info from netcdf restart file
 NATOM  =  152909 NTYPES =      30 NBONH =  112320 MBONA  =   40688
 NTHETH =   10953 MTHETA =    6572 NPHIH =   21920 MPHIA  =   21067
 NHPARM =       0 NPARM  =       0 NNB   =  303867 NRES   =   36435
 NBONA  =   40688 NTHETA =    6572 NPHIA =   21067 NUMBND =      94
 NUMANG =     220 NPTRA  =     222 NATYP =      51 NPHB   =       1
 IFBOX  =       2 NMXRS  =      50 IFCAP =       0 NEXTRA =   35840
 NCOPY  =       0

     BOX TYPE: TRUNCATED OCTAHEDRON

--------------------------------------------------------------------------------
   2.  CONTROL  DATA  FOR  THE  RUN
--------------------------------------------------------------------------------

default_name

General flags:
     imin    =       0, nmropt  =       0

Nature and format of input:
     ntx     =       1, irest   =       0, ntrx    =       1

Nature and format of output:
     ntxo    =       2, ntpr    =    1000, ntrx    =       1, ntwr    =   10000
     iwrap   =       0, ntwx    =   10000, ntwv    =       0, ntwe    =       0
     ioutfm  =       1, ntwprt  =       0, idecomp =       0, rbornstat=      0

Potential function:
     ntf     =       1, ntb     =       2, igb     =       0, nsnb    =      25
     ipol    =       0, gbsa    =       0, iesp    =       0
     dielc   =   1.00000, cut     =   8.00000, intdiel =   1.00000

Frozen or restrained atoms:
     ibelly  =       0, ntr     =       1
     restraint_wt =   5.00000

Molecular dynamics:
     nstlim  =     50000, nscm    =         0, nrespa  =         1
     t       =   0.00000, dt      =   0.00100, vlimit  =  -1.00000

Langevin dynamics temperature regulation:
     ig      =  110058
     temp0   = 310.00000, tempi   =   0.00000, gamma_ln=   2.00000

Pressure regulation:
     ntp     =       1
     pres0   =   1.00000, comp    =  44.60000, taup    =   0.50000
     Monte-Carlo Barostat:
     mcbarint  =     100

Extra-points options:
     frameon =       1, chngmask=       1

Ewald parameters:
     verbose =       0, ew_type =       0, nbflag  =       1, use_pme =       1
     vdwmeth =       1, eedmeth =       1, netfrc  =       1
     Box X =  118.682   Box Y =  118.682   Box Z =  118.682
     Alpha =  109.471   Beta  =  109.471   Gamma =  109.471
     NFFT1 =  128       NFFT2 =  128       NFFT3 =  128
     Cutoff=    8.000   Tol   =0.100E-04
     Ewald Coefficient =  0.34864
     Interpolation order =    4

    LOADING THE CONSTRAINED ATOMS AS GROUPS

   5.  REFERENCE ATOM COORDINATES

  default_name
     Mask :1-595 & !@H=; matches  4749 atoms

--------------------------------------------------------------------------------
   3.  ATOMIC COORDINATES AND VELOCITIES
--------------------------------------------------------------------------------

default_name
 begin time read from input coords =     0.000 ps

 Number of triangulated 3-point waters found:    35840

     Sum of charges from parm topology file =   0.00119637
     Forcing neutrality...

--------------------------------------------------------------------------------
   4.  RESULTS
 NSTEP =        0   TIME(PS) =       0.000  TEMP(K) =     0.00  PRESS =     0.0
 Etot   =   -629770.0329  EKtot   =         0.0000  EPtot      =   -629770.0329
 BOND   =    119163.2937  ANGLE   =      1360.7842  DIHED      =      2608.7475
 UB     =         0.0000  IMP     =         0.0000  CMAP       =       401.9904
 1-4 NB =      1842.3361  1-4 EEL =     24703.5875  VDWAALS    =    132179.1467
 EELEC  =   -912029.9190  EHBOND  =         0.0000  RESTRAINT  =         0.0000
 EKCMT  =         0.0000  VIRIAL  =         0.0000  VOLUME     =   1286861.1444
                                                    Density    =         0.9207
 ------------------------------------------------------------------------------

      A V E R A G E S   O V E R      50 S T E P S

 NSTEP =    50000   TIME(PS) =      50.000  TEMP(K) =   309.40  PRESS =     0.0
 Etot   =   -438269.0104  EKtot   =    107969.1241  EPtot      =   -546238.1345
 BOND   =    161536.9331  ANGLE   =      4881.6685  DIHED      =      3402.9928
 UB     =         0.0000  IMP     =         0.0000  CMAP       =       426.3130
 1-4 NB =      2125.9762  1-4 EEL =     24665.7290  VDWAALS    =    144065.5908
 EELEC  =   -888302.0433  EHBOND  =         0.0000  RESTRAINT  =       958.7053
 EAMBER (non-restraint)  =   -547196.8398
 EKCMT  =         0.0000  VIRIAL  =         0.0000  VOLUME     =   1150833.0634
                                                    Density    =         1.0301
 ------------------------------------------------------------------------------

      R M S  F L U C T U A T I O N S

 NSTEP =    50000   TIME(PS) =      50.000  TEMP(K) =     5.67  PRESS =     0.0
 Etot   =      6425.5289  EKtot   =      1979.6836  EPtot      =      6619.1901
 BOND   =      3618.5795  ANGLE   =        88.7692  DIHED      =        28.5707
 UB     =         0.0000  IMP     =         0.0000  CMAP       =         6.2237
 1-4 NB =        19.3954  1-4 EEL =        44.9008  VDWAALS    =      4898.0292
 EELEC  =     14857.7062  EHBOND  =         0.0000  RESTRAINT  =        32.9344
 EAMBER (non-restraint)  =      6586.2556
 EKCMT  =         0.0000  VIRIAL  =         0.0000  VOLUME     =     26959.9028
                                                    Density    =         0.0227
 ------------------------------------------------------------------------------
