-------------------------------------------------------
          Amber 20 PMEMD                              2020
          -------------------------------------------------------

  [-O]verwriting output

File Assignments:

 Here is the input file:

 MD simualation
&cntrl
 imin=0,           ! Perform MD
 nstlim=50000      ! Number of MD steps
 ntb=2,            ! 2=Constant Pressure, default when ntp>0. Unit cell size ch
 igb=0,            ! 1,2,5,8=implicit solvent
 ntc=1,            ! 2=SHAKE on for bonds with hydrogen (SHAKE restricts bond s
 dt=0.001,         ! Timestep (ps)
 ntp=1,            ! 1=Isotropic pressure scaling (0=no scaling) (should be 1 o
 barostat=2        ! 1=Berendsen barostat, 2=montecarlo thermostat, p339 amber
 taup=0.5          ! Pressure relaxtion time (ps)
 ntf=1,            ! 2=No force evaluation for bonds with hydrogen (1=complete
 ntt=3,            ! Langevin thermostat (0=constant total energy, p337 manual)
 gamma_ln=2.0      ! Collision Frequency for thermostat
 ig=-1,            ! Random seed for thermostat
 temp0=310         ! Simulation temperature (K)
 ntwx= 10000,        ! Write to trajectory file every ntwx steps
 ntpr= 1000,        ! Print to mdout every ntpr steps
 ntwr= 10000,        ! Write a restart file every ntwr steps
 cut=8,          ! Nonbonded cutoff in Angstroms
 ntr=0,            ! Turn on restraints
 restraintmask=":1-111 & !@H=|:253@CCE,CCL,CAB,CCJ", ! atoms to be restrained (
 restraint_wt=10, ! force constant for restraint
 ntxo=2,           ! 1=Write coordinate file in ASCII format, 2=NetCDF
 ntxo=2,           ! 1=Write coordinate file in ASCII format, 2=NetCDF
 ioutfm=1,         ! 0=Write trajectory file in ASCII format, 1=NetCDF
 nmropt=1,         !
/
&wt type='END' /
DISANG=zinc.rst
LISTOUT=POUT

Note: ig = -1. Setting random seed to   302713 based on wallclock time in
      microseconds.

--------------------------------------------------------------------------------
   1.  RESOURCE   USE:
--------------------------------------------------------------------------------

 getting box info from netcdf restart file
 NATOM  =  146551 NTYPES =      19 NBONH =  107571 MBONA  =   39076
 NTHETH =   10912 MTHETA =    6520 NPHIH =   21834 MPHIA  =   20975
 NHPARM =       0 NPARM  =       0 NNB   =  292548 NRES   =   34857
 NBONA  =   39076 NTHETA =    6520 NPHIA =   20975 NUMBND =      78
 NUMANG =     184 NPTRA  =     202 NATYP =      39 NPHB   =       1
 IFBOX  =       2 NMXRS  =      24 IFCAP =       0 NEXTRA =   34263
 NCOPY  =       0

     BOX TYPE: TRUNCATED OCTAHEDRON

--------------------------------------------------------------------------------
   2.  CONTROL  DATA  FOR  THE  RUN
--------------------------------------------------------------------------------

default_name

General flags:
     imin    =       0, nmropt  =       1

Nature and format of input:
     ntx     =       1, irest   =       0, ntrx    =       1

Nature and format of output:
     ntxo    =       2, ntpr    =    1000, ntrx    =       1, ntwr    =   10000
     iwrap   =       0, ntwx    =   10000, ntwv    =       0, ntwe    =       0
     ioutfm  =       1, ntwprt  =       0, idecomp =       0, rbornstat=      0

Potential function:
     ntf     =       1, ntb     =       2, igb     =       0, nsnb    =      25
     ipol    =       0, gbsa    =       0, iesp    =       0
     dielc   =   1.00000, cut     =   8.00000, intdiel =   1.00000

Frozen or restrained atoms:
     ibelly  =       0, ntr     =       0

Molecular dynamics:
     nstlim  =     50000, nscm    =      1000, nrespa  =         1
     t       =   0.00000, dt      =   0.00100, vlimit  =  -1.00000

Langevin dynamics temperature regulation:
     ig      =  302713
     temp0   = 310.00000, tempi   =   0.00000, gamma_ln=   2.00000

Pressure regulation:
     ntp     =       1
     pres0   =   1.00000, comp    =  44.60000, taup    =   0.50000
     Monte-Carlo Barostat:
     mcbarint  =     100

NMR refinement options:
     iscale  =       0, noeskp  =       1, ipnlty  =       1, mxsub   =       1
     scalm   = 100.00000, pencut  =   0.10000, tausw   =   0.10000

Extra-points options:
     frameon =       1, chngmask=       1

Ewald parameters:
     verbose =       0, ew_type =       0, nbflag  =       1, use_pme =       1
     vdwmeth =       1, eedmeth =       1, netfrc  =       1
     Box X =  112.172   Box Y =  112.172   Box Z =  112.172
     Alpha =  109.471   Beta  =  109.471   Gamma =  109.471
     NFFT1 =  120       NFFT2 =  120       NFFT3 =  120
     Cutoff=    8.000   Tol   =0.100E-04
     Ewald Coefficient =  0.34864
     Interpolation order =    4

--------------------------------------------------------------------------------
   3.  ATOMIC COORDINATES AND VELOCITIES
--------------------------------------------------------------------------------

default_name
 begin time read from input coords =    50.000 ps

           Begin reading energy term weight changes/NMR restraints
 WEIGHT CHANGES:
                         ** No weight changes given **

 RESTRAINTS:
 Requested file redirections:
  DISANG    = zinc.rst
  LISTOUT   = POUT
 Restraints will be read from file: zinc.rst
Here are comments from the DISANG input file:

                       Number of restraints read =     4

                  Done reading weight changes/NMR restraints

 Number of triangulated 3-point waters found:    34263

     Sum of charges from parm topology file =   0.00018773
     Forcing neutrality...

--------------------------------------------------------------------------------
   4.  RESULTS
 NSTEP =        0   TIME(PS) =       0.000  TEMP(K) =     0.00  PRESS =     0.0
 Etot   =   -532524.9595  EKtot   =         0.0000  EPtot      =   -532524.9595
 BOND   =    158368.6660  ANGLE   =      5014.2244  DIHED      =      3387.2009
 UB     =         0.0000  IMP     =         0.0000  CMAP       =       436.8201
 1-4 NB =      2138.0130  1-4 EEL =     24626.2454  VDWAALS    =    142011.9501
 EELEC  =   -868529.2766  EHBOND  =         0.0000  RESTRAINT  =        21.1972
 EAMBER (non-restraint)  =   -532546.1567
 EKCMT  =         0.0000  VIRIAL  =         0.0000  VOLUME     =   1086495.7894
                                                    Density    =         1.0464
 ------------------------------------------------------------------------------

      A V E R A G E S   O V E R      50 S T E P S

 NSTEP =    50000   TIME(PS) =      50.000  TEMP(K) =   309.64  PRESS =     0.0
 Etot   =   -430376.4342  EKtot   =    103638.0786  EPtot      =   -534014.5127
 BOND   =    158828.1556  ANGLE   =      4954.7371  DIHED      =      3427.5242
 UB     =         0.0000  IMP     =         0.0000  CMAP       =       447.5563
 1-4 NB =      2131.8538  1-4 EEL =     24687.2573  VDWAALS    =    144238.0167
 EELEC  =   -872743.8699  EHBOND  =         0.0000  RESTRAINT  =        14.2560
 EAMBER (non-restraint)  =   -534028.7687
 EKCMT  =         0.0000  VIRIAL  =         0.0000  VOLUME     =   1082610.6345
                                                    Density    =         1.0502
 ------------------------------------------------------------------------------

      R M S  F L U C T U A T I O N S

 NSTEP =    50000   TIME(PS) =      50.000  TEMP(K) =     3.38  PRESS =     0.0
 Etot   =      2476.5914  EKtot   =      1132.8719  EPtot      =      1406.7961
 BOND   =       500.8818  ANGLE   =        67.5556  DIHED      =        25.3680
 UB     =         0.0000  IMP     =         0.0000  CMAP       =         8.6690
 1-4 NB =        20.2630  1-4 EEL =        49.4544  VDWAALS    =       685.5633
 EELEC  =      2017.4985  EHBOND  =         0.0000  RESTRAINT  =         5.1412
 EAMBER (non-restraint)  =      1401.6550
 EKCMT  =         0.0000  VIRIAL  =         0.0000  VOLUME     =       885.6273
                                                    Density    =         0.0009
 ------------------------------------------------------------------------------
